MODEL 1
REMARK VINA RESULT:    -8.369      0.000      0.000
REMARK INTER + INTRA:          32.591
REMARK INTER:                  -9.348
REMARK INTRA:                  41.939
REMARK UNBOUND:                41.939
REMARK  Name = 
REMARK  2 active torsions:
REMARK  status: ('A' for Active; 'I' for Inactive)
REMARK    1  A    between atoms: C_2  and  C_5
REMARK    2  A    between atoms: C_4  and  C_5
REMARK                            x       y       z     vdW  Elec       q    Type
REMARK                         _______ _______ _______ _____ _____    ______ ____
ROOT
ATOM      1  C   UNL     1       2.290  46.946 -16.435  0.00  0.00    +0.000 A 
ATOM      2  C   UNL     1       2.159  47.564 -16.763  0.00  0.00    +0.000 A 
ATOM      3  C   UNL     1       1.849  46.391 -16.532  0.00  0.00    +0.000 A 
ATOM      4 CL   UNL     1       1.979  45.777 -16.206  0.00  0.00    +0.000 Cl
ATOM      5 CL   UNL     1       2.595  48.124 -16.670  0.00  0.00    +0.000 Cl
ATOM      6  C   UNL     1       1.153  47.075 -17.282  0.00  0.00    +0.000 A 
ATOM      7  C   UNL     1       1.585  47.633 -17.191  0.00  0.00    +0.000 A 
ATOM      8  C   UNL     1       1.284  46.457 -16.953  0.00  0.00    +0.000 A 
ENDROOT
BRANCH   1   9
ATOM      9  C   UNL     1       2.859  46.882 -16.011  0.00  0.00    +0.000 C 
BRANCH   9  12
ATOM     10  N   UNL     1       3.388  47.070 -14.922  0.00  0.00    +0.000 NA
ATOM     11  C   UNL     1       3.342  47.208 -14.268  0.00  0.00    +0.000 C 
ATOM     12  C   UNL     1       2.804  47.028 -15.321  0.00  0.00    +0.000 C 
ATOM     13  N   UNL     1       2.679  47.315 -13.965  0.00  0.00    +0.000 NA
ATOM     14  O   UNL     1       2.177  47.131 -15.026  0.00  0.00    +0.000 OA
ATOM     15  N   UNL     1       3.952  47.239 -13.918  0.00  0.00    +0.000 NA
ENDBRANCH   9  12
ENDBRANCH   1   9
TORSDOF 2
ENDMDL
