REMARK  Name = *****
REMARK  19 active torsions:
REMARK  status: ('A' for Active; 'I' for Inactive)
REMARK    1  A    between atoms: C_1  and  C_2
REMARK    2  A    between atoms: C_1  and  C_4
REMARK    3  A    between atoms: C_2  and  C_7
REMARK    4  A    between atoms: C_4  and  C_8
REMARK    5  A    between atoms: C_7  and  C_11
REMARK    6  A    between atoms: C_8  and  C_14
REMARK    7  A    between atoms: C_11  and  O_32
REMARK    8  A    between atoms: C_12  and  C_15
REMARK    9  A    between atoms: C_12  and  O_25
REMARK   10  A    between atoms: C_13  and  C_16
REMARK   11  A    between atoms: C_13  and  O_26
REMARK   12  A    between atoms: C_17  and  O_27
REMARK   13  A    between atoms: C_18  and  O_28
REMARK   14  A    between atoms: C_19  and  O_29
REMARK   15  A    between atoms: C_20  and  O_30
REMARK   16  A    between atoms: C_21  and  O_31
REMARK   17  A    between atoms: C_22  and  O_35
REMARK   18  A    between atoms: C_23  and  O_32
REMARK   19  A    between atoms: C_24  and  O_35
REMARK                            x       y       z     vdW  Elec       q    Type
REMARK                         _______ _______ _______ _____ _____    ______ ____
ROOT
ATOM      1  C   UNL A   1      -4.002  -2.585  -1.469  0.00  0.00    +0.178 C 
ATOM      2  C   UNL A   1      -4.294  -5.029  -2.336  0.00  0.00    +0.179 C 
ATOM      3  C   UNL A   1      -4.450  -5.448  -0.866  0.00  0.00    +0.201 C 
ATOM      4  C   UNL A   1      -4.340  -3.519  -2.659  0.00  0.00    +0.183 C 
ATOM      5  C   UNL A   1      -3.720  -4.419   0.009  0.00  0.00    +0.282 C 
ATOM      6  O   UNL A   1      -4.380  -3.160  -0.196  0.00  0.00    -0.341 OA
ENDROOT
BRANCH   3   7
ATOM      7  O   UNL A   1      -3.919  -6.776  -0.723  0.00  0.00    -0.384 OA
ATOM      8  H   UNL A   1      -2.978  -6.750  -0.980  0.00  0.00    +0.210 HD
ENDBRANCH   3   7
BRANCH   2   9
ATOM      9  O   UNL A   1      -5.271  -5.713  -3.147  0.00  0.00    -0.386 OA
ATOM     10  H   UNL A   1      -5.301  -6.636  -2.831  0.00  0.00    +0.210 HD
ENDBRANCH   2   9
BRANCH   4  11
ATOM     11  O   UNL A   1      -3.684  -3.187  -3.919  0.00  0.00    -0.340 OA
BRANCH  11  16
ATOM     12  C   UNL A   1      -1.691  -5.284  -4.441  0.00  0.00    +0.178 C 
ATOM     13  C   UNL A   1      -1.314  -4.984  -5.891  0.00  0.00    +0.177 C 
ATOM     14  C   UNL A   1      -2.041  -3.718  -6.365  0.00  0.00    +0.179 C 
ATOM     15  C   UNL A   1      -1.806  -2.570  -5.375  0.00  0.00    +0.201 C 
ATOM     16  C   UNL A   1      -2.256  -3.002  -3.950  0.00  0.00    +0.282 C 
ATOM     17  O   UNL A   1      -1.517  -4.153  -3.565  0.00  0.00    -0.341 OA
BRANCH  15  18
ATOM     18  O   UNL A   1      -2.479  -1.376  -5.794  0.00  0.00    -0.384 OA
ATOM     19  H   UNL A   1      -3.434  -1.558  -5.729  0.00  0.00    +0.210 HD
ENDBRANCH  15  18
BRANCH  14  20
ATOM     20  O   UNL A   1      -1.594  -3.416  -7.696  0.00  0.00    -0.386 OA
ATOM     21  H   UNL A   1      -0.721  -2.990  -7.642  0.00  0.00    +0.210 HD
ENDBRANCH  14  20
BRANCH  13  22
ATOM     22  O   UNL A   1      -1.677  -6.096  -6.720  0.00  0.00    -0.387 OA
ATOM     23  H   UNL A   1      -2.008  -5.726  -7.563  0.00  0.00    +0.210 HD
ENDBRANCH  13  22
BRANCH  12  24
ATOM     24  C   UNL A   1      -0.897  -6.465  -3.862  0.00  0.00    +0.190 C 
BRANCH  24  25
ATOM     25  O   UNL A   1      -1.244  -6.689  -2.484  0.00  0.00    -0.392 OA
ATOM     26  H   UNL A   1      -0.599  -7.338  -2.150  0.00  0.00    +0.209 HD
ENDBRANCH  24  25
ENDBRANCH  12  24
ENDBRANCH  11  16
ENDBRANCH   4  11
BRANCH   5  27
ATOM     27  O   UNL A   1      -3.544  -4.741   1.394  0.00  0.00    -0.349 OA
BRANCH  27  28
ATOM     28  C   UNL A   1      -4.666  -5.222   2.117  0.00  0.00    +0.163 C 
BRANCH  28  29
ATOM     29  C   UNL A   1      -4.213  -5.686   3.512  0.00  0.00    +0.028 C 
BRANCH  29  30
ATOM     30  C   UNL A   1      -3.608  -4.613   4.429  0.00  0.00    +0.002 C 
BRANCH  30  31
ATOM     31  C   UNL A   1      -4.505  -3.417   4.751  0.00  0.00    +0.000 C 
BRANCH  31  32
ATOM     32  C   UNL A   1      -5.853  -3.720   5.417  0.00  0.00    +0.000 C 
BRANCH  32  33
ATOM     33  C   UNL A   1      -5.758  -4.268   6.850  0.00  0.00    +0.003 C 
BRANCH  33  39
ATOM     34  C   UNL A   1      -9.184  -4.206   9.640  0.00  0.00    +0.000 C 
ATOM     35  C   UNL A   1      -9.344  -3.529   8.285  0.00  0.00    +0.000 C 
ATOM     36  C   UNL A   1      -8.340  -5.469   9.532  0.00  0.00    +0.000 C 
ATOM     37  C   UNL A   1      -7.995  -3.259   7.622  0.00  0.00    +0.003 C 
ATOM     38  C   UNL A   1      -6.987  -5.197   8.873  0.00  0.00    +0.003 C 
ATOM     39  C   UNL A   1      -7.143  -4.535   7.489  0.00  0.00    -0.011 C 
ENDBRANCH  33  39
ENDBRANCH  32  33
ENDBRANCH  31  32
ENDBRANCH  30  31
ENDBRANCH  29  30
ENDBRANCH  28  29
ENDBRANCH  27  28
ENDBRANCH   5  27
BRANCH   1  40
ATOM     40  C   UNL A   1      -4.755  -1.257  -1.691  0.00  0.00    +0.190 C 
BRANCH  40  41
ATOM     41  O   UNL A   1      -4.524  -0.332  -0.636  0.00  0.00    -0.392 OA
ATOM     42  H   UNL A   1      -5.216   0.348  -0.704  0.00  0.00    +0.209 HD
ENDBRANCH  40  41
ENDBRANCH   1  40
TORSDOF 19
