REMARK  Name = *****
REMARK  11 active torsions:
REMARK  status: ('A' for Active; 'I' for Inactive)
REMARK    1  A    between atoms: O_3  and  C_19
REMARK    2  A    between atoms: O_7  and  N_10
REMARK    3  A    between atoms: O_7  and  C_26
REMARK    4  A    between atoms: N_9  and  CA_16
REMARK    5  A    between atoms: C_13  and  C_17
REMARK    6  A    between atoms: C_13  and  C_18
REMARK    7  A    between atoms: CA_14  and  C_19
REMARK    8  A    between atoms: C_15  and  CA_16
REMARK    9  A    between atoms: CA_16  and  C_20
REMARK   10  A    between atoms: C_21  and  C_22
REMARK   11  A    between atoms: C_22  and  C_23
REMARK                            x       y       z     vdW  Elec       q    Type
REMARK                         _______ _______ _______ _____ _____    ______ ____
ROOT
ATOM      1  O   UNL A   1      -0.544  -0.974  -0.775  0.00  0.00    -0.268 OA
ATOM      2  N   UNL A   1      -2.514  -0.561   0.312  0.00  0.00    -0.298 N 
ATOM      3  C   UNL A   1      -1.147  -0.369   0.102  0.00  0.00    +0.268 C 
ATOM      4  H   UNL A   1      -2.961   0.129   0.921  0.00  0.00    +0.150 HD
ENDROOT
BRANCH   3   6
ATOM      5  N   UNL A   1       0.805   0.728   1.305  0.00  0.00    -0.078 NA
ATOM      6  C   UNL A   1      -0.453   0.740   0.954  0.00  0.00    +0.190 C 
BRANCH   6  10
ATOM      7  S   UNL A   1      -1.999   4.184   2.259  0.00  0.00    -0.060 S 
ATOM      8  N   UNL A   1      -2.559   2.042   0.980  0.00  0.00    -0.223 NA
ATOM      9  N   UNL A   1      -4.330   3.528   1.095  0.00  0.00    -0.338 N 
ATOM     10  C   UNL A   1      -1.223   1.930   1.351  0.00  0.00    +0.107 A 
ATOM     11  C   UNL A   1      -0.755   3.012   2.064  0.00  0.00    +0.078 A 
ATOM     12  C   UNL A   1      -3.065   3.182   1.369  0.00  0.00    +0.156 A 
ATOM     13  H   UNL A   1      -4.786   4.225   1.669  0.00  0.00    +0.144 HD
ATOM     14  H   UNL A   1      -4.934   2.757   0.807  0.00  0.00    +0.144 HD
ENDBRANCH   6  10
BRANCH   5  15
ATOM     15  O   UNL A   1       1.488  -0.390   0.811  0.00  0.00    -0.396 OA
ATOM     16  C   UNL A   1       2.877  -0.267   1.100  0.00  0.00    +0.313 C 
ENDBRANCH   5  15
ENDBRANCH   3   6
BRANCH   2  17
ATOM     17  CA  UNL A   1      -3.350  -0.986  -0.830  0.00  0.00    +0.163 C 
BRANCH  17  22
ATOM     18  S   UNL A   1      -5.193  -2.894   0.270  0.00  0.00    -0.131 S 
ATOM     19  N   UNL A   1      -4.072  -3.038  -2.184  0.00  0.00    -0.290 NA
ATOM     20  C   UNL A   1      -5.971  -4.069  -0.901  0.00  0.00    +0.038 C 
ATOM     21  CA  UNL A   1      -5.511  -3.485  -2.248  0.00  0.00    +0.180 C 
ATOM     22  C   UNL A   1      -3.793  -2.481  -0.824  0.00  0.00    +0.141 C 
ATOM     23  C   UNL A   1      -5.456  -5.479  -0.579  0.00  0.00    +0.025 C 
ATOM     24  C   UNL A   1      -7.495  -4.013  -0.749  0.00  0.00    +0.025 C 
ATOM     25  H   UNL A   1      -3.492  -3.882  -2.237  0.00  0.00    +0.124 HD
BRANCH  21  27
ATOM     26  OXT UNL A   1      -6.546  -5.325  -3.531  0.00  0.00    -0.249 OA
ATOM     27  C   UNL A   1      -5.687  -4.462  -3.428  0.00  0.00    +0.323 C 
BRANCH  27  28
ATOM     28  O   UNL A   1      -4.773  -4.233  -4.412  0.00  0.00    -0.479 OA
ATOM     29  H   UNL A   1      -4.202  -3.473  -4.152  0.00  0.00    +0.295 HD
ENDBRANCH  27  28
ENDBRANCH  21  27
ENDBRANCH  17  22
BRANCH  17  31
ATOM     30  O   UNL A   1      -5.003   0.641  -0.034  0.00  0.00    -0.299 OA
ATOM     31  C   UNL A   1      -4.524  -0.018  -0.960  0.00  0.00    +0.247 C 
ENDBRANCH  17  31
ENDBRANCH   2  17
TORSDOF 8
