REMARK  Name = 1127
REMARK  6 active torsions:
REMARK  status: ('A' for Active; 'I' for Inactive)
REMARK    1  A    between atoms: O_4  and  C_7
REMARK    2  A    between atoms: O_4  and  C_10
REMARK    3  A    between atoms: N_5  and  C_8
REMARK    4  A    between atoms: C_7  and  C_8
REMARK    5  A    between atoms: C_7  and  C_9
REMARK    6  A    between atoms: C_10  and  C_13
REMARK                            x       y       z     vdW  Elec       q    Type
REMARK                         _______ _______ _______ _____ _____    ______ ____
ROOT
ATOM      1  C   UNL A   1      -2.471  -2.118   0.106  0.00  0.00    +0.170 C 
ENDROOT
BRANCH   1   4
ATOM      2 CL   UNL A   1      -1.874   0.207   2.197  0.00  0.00    -0.083 Cl
ATOM      3 CL   UNL A   1       2.860   0.796  -0.209  0.00  0.00    -0.084 Cl
ATOM      4  C   UNL A   1      -1.169  -1.306   0.002  0.00  0.00    +0.001 A 
ATOM      5  C   UNL A   1      -0.808  -0.315   0.939  0.00  0.00    +0.048 A 
ATOM      6  C   UNL A   1      -0.257  -1.562  -1.045  0.00  0.00    +0.009 A 
ATOM      7  C   UNL A   1       0.441   0.319   0.884  0.00  0.00    +0.040 A 
ATOM      8  C   UNL A   1       0.975  -0.905  -1.121  0.00  0.00    +0.020 A 
ATOM      9  C   UNL A   1       1.327   0.017  -0.143  0.00  0.00    +0.042 A 
ENDBRANCH   1   4
BRANCH   1  10
ATOM     10  O   UNL A   1      -2.602  -2.959  -1.057  0.00  0.00    -0.366 OA
BRANCH  10  11
ATOM     11  C   UNL A   1      -3.873  -3.568  -1.245  0.00  0.00    +0.196 C 
BRANCH  11  13
ATOM     12 CL   UNL A   1      -3.442  -7.029  -6.168  0.00  0.00    -0.084 Cl
ATOM     13  C   UNL A   1      -3.796  -4.445  -2.471  0.00  0.00    -0.022 A 
ATOM     14  C   UNL A   1      -3.325  -5.765  -2.377  0.00  0.00    +0.007 A 
ATOM     15  C   UNL A   1      -4.156  -3.942  -3.729  0.00  0.00    +0.007 A 
ATOM     16  C   UNL A   1      -3.226  -6.568  -3.516  0.00  0.00    +0.020 A 
ATOM     17  C   UNL A   1      -4.056  -4.745  -4.868  0.00  0.00    +0.020 A 
ATOM     18  C   UNL A   1      -3.588  -6.052  -4.759  0.00  0.00    +0.041 A 
ENDBRANCH  11  13
ENDBRANCH  10  11
ENDBRANCH   1  10
BRANCH   1  19
ATOM     19  C   UNL A   1      -2.577  -2.951   1.411  0.00  0.00    +0.159 C 
BRANCH  19  20
ATOM     20  N   UNL A   1      -1.637  -4.051   1.503  0.00  0.00    -0.334 N 
ATOM     21  N   UNL A   1      -0.889  -6.133   1.548  0.00  0.00    -0.244 NA
ATOM     22  C   UNL A   1      -0.283  -3.963   1.674  0.00  0.00    +0.107 A 
ATOM     23  C   UNL A   1      -1.960  -5.378   1.491  0.00  0.00    +0.199 A 
ATOM     24  C   UNL A   1       0.162  -5.260   1.646  0.00  0.00    +0.130 A 
ENDBRANCH  19  20
ENDBRANCH   1  19
TORSDOF 6
