REMARK  Name = 
REMARK  7 active torsions:
REMARK  status: ('A' for Active; 'I' for Inactive)
REMARK    1  A    between atoms: C_5  and  C_11
REMARK    2  A    between atoms: C_6  and  N_9
REMARK    3  A    between atoms: N_9  and  C_20
REMARK    4  A    between atoms: C_11  and  C_12
REMARK    5  A    between atoms: C_13  and  O_18
REMARK    6  A    between atoms: O_18  and  C_19
REMARK    7  A    between atoms: C_19  and  C_20
REMARK                            x       y       z     vdW  Elec       q    Type
REMARK                         _______ _______ _______ _____ _____    ______ ____
ROOT
ATOM      1  C   UNL     1       3.442  -3.092   0.000  0.00  0.00    +0.000 A 
ATOM      2  C   UNL     1       2.225  -3.792   0.000  0.00  0.00    +0.000 A 
ATOM      3  C   UNL     1       2.817  -2.750   0.000  0.00  0.00    +0.000 A 
ATOM      4  C   UNL     1       3.442  -3.792   0.000  0.00  0.00    +0.000 A 
ATOM      5  C   UNL     1       2.817  -4.167   0.000  0.00  0.00    +0.000 A 
ATOM      6  C   UNL     1       2.225  -3.092   0.000  0.00  0.00    +0.000 A 
ENDROOT    0.342  -4.142   0.000  0.00  0.00    +0.000 C 
BRANCH  17  18
ATOM     18  N   UNL     1      -0.275  -3.792   0.000  0.00  0.00    +0.000 N 
ATOM     19  C   UNL     1      -0.275  -3.079   0.000  0.00  0.00    +0.000 C 
BRANCH  18  20
ATOM     20  C   UNL     1      -0.908  -4.142   0.000  0.00  0.00    +0.000 A 
ATOM     21  N   UNL     1      -1.550  -3.779   0.000  0.00  0.00    +0.000 NA
ATOM     22  C   UNL     1      -0.908  -4.867   0.000  0.00  0.00    +0.000 A 
ATOM     23  C   UNL     1      -2.163  -4.142   0.000  0.00  0.00    +0.000 A 
ATOM     24  C   UNL     1      -1.550  -5.242   0.000  0.00  0.00    +0.000 A 
ATOM     25  C   UNL     1      -2.163  -4.867   0.000  0.00  0.00    +0.000 A 
ENDBRANCH  18  20
ENDBRANCH  17  18
ENDBRANCH  16  17
ENDBRANCH  15  16
ENDBRANCH   2  15
TORSDOF 7
