REMARK  Name = *****
REMARK  15 active torsions:
REMARK  status: ('A' for Active; 'I' for Inactive)
REMARK    1  A    between atoms: C_1  and  C_18
REMARK    2  A    between atoms: C_2  and  C_3
REMARK    3  A    between atoms: C_3  and  C_4
REMARK    4  A    between atoms: C_5  and  C_6
REMARK    5  A    between atoms: C_6  and  C_7
REMARK    6  A    between atoms: C_8  and  C_9
REMARK    7  A    between atoms: C_9  and  C_10
REMARK    8  A    between atoms: C_11  and  C_12
REMARK    9  A    between atoms: C_12  and  C_13
REMARK   10  A    between atoms: C_14  and  C_15
REMARK   11  A    between atoms: C_15  and  C_16
REMARK   12  A    between atoms: C_16  and  C_17
REMARK   13  A    between atoms: C_17  and  C_22
REMARK   14  A    between atoms: C_18  and  C_19
REMARK   15  A    between atoms: O_21  and  C_22
REMARK                            x       y       z     vdW  Elec       q    Type
REMARK                         _______ _______ _______ _____ _____    ______ ____
ROOT
ATOM      1  C   UNL A   1      -1.937   8.212  -1.018  0.00  0.00    -0.027 C 
ATOM      2  C   UNL A   1      -3.118   8.101  -0.395  0.00  0.00    -0.027 C 
ENDROOT
BRANCH   1   3
ATOM      3  C   UNL A   1      -1.473   7.350  -2.158  0.00  0.00    +0.054 C 
BRANCH   3   5
ATOM      4  C   UNL A   1       0.784   8.318  -2.742  0.00  0.00    -0.027 C 
ATOM      5  C   UNL A   1       0.023   7.309  -2.284  0.00  0.00    -0.027 C 
BRANCH   4   6
ATOM      6  C   UNL A   1       0.292   9.696  -3.084  0.00  0.00    +0.054 C 
BRANCH   6   8
ATOM      7  C   UNL A   1      -0.673  10.951  -5.018  0.00  0.00    -0.027 C 
ATOM      8  C   UNL A   1      -0.020   9.878  -4.537  0.00  0.00    -0.027 C 
BRANCH   7   9
ATOM      9  C   UNL A   1      -1.174  12.107  -4.194  0.00  0.00    +0.054 C 
BRANCH   9  11
ATOM     10  C   UNL A   1      -0.939  14.542  -4.908  0.00  0.00    -0.031 C 
ATOM     11  C   UNL A   1      -0.426  13.363  -4.516  0.00  0.00    -0.027 C 
BRANCH  10  12
ATOM     12  C   UNL A   1      -2.388  14.882  -5.117  0.00  0.00    +0.023 C 
ATOM     13  C   UNL A   1      -2.634  15.391  -6.528  0.00  0.00    +0.008 C 
ENDBRANCH  10  12
ENDBRANCH   9  11
ENDBRANCH   7   9
ENDBRANCH   6   8
ENDBRANCH   4   6
ENDBRANCH   3   5
ENDBRANCH   1   3
BRANCH   2  14
ATOM     14  C   UNL A   1      -4.128   7.035  -0.668  0.00  0.00    +0.054 C 
BRANCH  14  15
ATOM     15  C   UNL A   1      -4.913   6.731   0.571  0.00  0.00    -0.027 C 
ATOM     16  C   UNL A   1      -6.245   6.827   0.692  0.00  0.00    -0.031 C 
BRANCH  16  17
ATOM     17  C   UNL A   1      -7.190   7.243  -0.400  0.00  0.00    +0.027 C 
BRANCH  17  18
ATOM     18  C   UNL A   1      -7.588   6.074  -1.303  0.00  0.00    +0.015 C 
BRANCH  18  19
ATOM     19  C   UNL A   1      -8.304   4.962  -0.541  0.00  0.00    +0.121 C 
BRANCH  19  21
ATOM     20  O   UNL A   1      -8.927   3.913  -2.660  0.00  0.00    -0.251 OA
ATOM     21  C   UNL A   1      -8.743   3.852  -1.460  0.00  0.00    +0.305 C 
BRANCH  21  22
ATOM     22  O   UNL A   1      -8.956   2.704  -0.787  0.00  0.00    -0.481 OA
ATOM     23  H   UNL A   1      -9.248   2.076  -1.479  0.00  0.00    +0.295 HD
ENDBRANCH  21  22
ENDBRANCH  19  21
ENDBRANCH  18  19
ENDBRANCH  17  18
ENDBRANCH  16  17
ENDBRANCH  14  15
ENDBRANCH   2  14
TORSDOF 14
