MODEL 1
REMARK VINA RESULT:    -5.381      0.000      0.000
REMARK INTER + INTRA:          -8.837
REMARK INTER:                  -7.667
REMARK INTRA:                  -1.170
REMARK UNBOUND:                -0.782
REMARK  Name = ZINC000005554638
REMARK                            x       y       z     vdW  Elec       q    Type
REMARK                         _______ _______ _______ _____ _____    ______ ____
ROOT
ATOM      1  C   LIG    1      -58.776  -8.590  13.527  0.00  0.00    -0.050 C 
ENDROOT
BRANCH   1   2
ATOM      2  C   LIG    1      -60.241  -9.025  13.452  0.00  0.00    +0.010 C 
ATOM      3  C   LIG    1      -60.351 -10.302  12.615  0.00  0.00    +0.020 C 
ENDBRANCH   1   2
BRANCH   1   4
ATOM      4  C   LIG    1      -58.556  -7.757  14.791  0.00  0.00    +0.030 C 
BRANCH   4   5
ATOM      5  C   LIG    1      -57.779  -6.489  14.438  0.00  0.00    +0.020 C 
BRANCH   5   7
ATOM      6  C   LIG    1      -55.315  -6.881  14.291  0.00  0.00    +0.000 C 
ATOM      7  C   LIG    1      -56.461  -6.464  15.215  0.00  0.00    -0.010 C 
ENDBRANCH   5   7
ENDBRANCH   4   5
ENDBRANCH   1   4
BRANCH   1   8
ATOM      8  C   LIG    1      -58.429  -7.751  12.296  0.00  0.00    +0.030 C 
BRANCH   8   9
ATOM      9  C   LIG    1      -57.310  -8.438  11.510  0.00  0.00    +0.260 C 
BRANCH   9  10
ATOM     10  N   LIG    1      -56.452  -7.421  10.888  0.00  0.00    -0.640 N 
ATOM     11  H   LIG    1      -56.261  -6.688  11.555  0.00  0.00    +0.430 HD
ATOM     12  H   LIG    1      -56.923  -7.029  10.084  0.00  0.00    +0.430 HD
ATOM     13  H   LIG    1      -55.585  -7.844  10.596  0.00  0.00    +0.440 HD
ENDBRANCH   9  10
ENDBRANCH   8   9
ENDBRANCH   1   8
BRANCH   1  14
ATOM     14  C   LIG    1      -57.878  -9.828  13.569  0.00  0.00    +0.020 C 
BRANCH  14  15
ATOM     15  C   LIG    1      -57.492 -10.129  15.019  0.00  0.00    -0.010 C 
ATOM     16  C   LIG    1      -56.031 -10.580  15.074  0.00  0.00    +0.010 C 
ENDBRANCH  14  15
ENDBRANCH   1  14
TORSDOF 9
ENDMDL
MODEL 2
REMARK VINA RESULT:    -5.325      1.765      3.025
REMARK INTER + INTRA:          -8.753
REMARK INTER:                  -7.517
REMARK INTRA:                  -1.236
REMARK UNBOUND:                -0.782
REMARK  Name = ZINC000005554638
REMARK                            x       y       z     vdW  Elec       q    Type
REMARK                         _______ _______ _______ _____ _____    ______ ____
ROOT
ATOM      1  C   LIG    1      -58.836  -8.545  13.846  0.00  0.00    -0.050 C 
ENDROOT
BRANCH   1   2
ATOM      2  C   LIG    1      -58.672  -7.675  15.093  0.00  0.00    +0.010 C 
ATOM      3  C   LIG    1      -58.492  -6.214  14.674  0.00  0.00    +0.020 C 
ENDBRANCH   1   2
BRANCH   1   4
ATOM      4  C   LIG    1      -58.506  -7.720  12.601  0.00  0.00    +0.030 C 
BRANCH   4   5
ATOM      5  C   LIG    1      -57.347  -8.374  11.847  0.00  0.00    +0.020 C 
BRANCH   5   7
ATOM      6  C   LIG    1      -55.350  -7.238  12.828  0.00  0.00    +0.000 C 
ATOM      7  C   LIG    1      -56.251  -7.337  11.595  0.00  0.00    -0.010 C 
ENDBRANCH   5   7
ENDBRANCH   4   5
ENDBRANCH   1   4
BRANCH   1   8
ATOM      8  C   LIG    1      -60.280  -9.045  13.758  0.00  0.00    +0.030 C 
BRANCH   8   9
ATOM      9  C   LIG    1      -60.282 -10.542  13.440  0.00  0.00    +0.260 C 
BRANCH   9  10
ATOM     10  N   LIG    1      -60.776 -10.750  12.072  0.00  0.00    -0.640 N 
ATOM     11  H   LIG    1      -60.078 -11.237  11.531  0.00  0.00    +0.430 HD
ATOM     12  H   LIG    1      -60.969  -9.856  11.644  0.00  0.00    +0.430 HD
ATOM     13  H   LIG    1      -61.623 -11.298  12.099  0.00  0.00    +0.440 HD
ENDBRANCH   9  10
ENDBRANCH   8   9
ENDBRANCH   1   8
BRANCH   1  14
ATOM     14  C   LIG    1      -57.887  -9.742  13.931  0.00  0.00    +0.020 C 
BRANCH  14  15
ATOM     15  C   LIG    1      -57.130  -9.700  15.260  0.00  0.00    -0.010 C 
ATOM     16  C   LIG    1      -55.755 -10.347  15.084  0.00  0.00    +0.010 C 
ENDBRANCH  14  15
ENDBRANCH   1  14
TORSDOF 9
ENDMDL
MODEL 3
REMARK VINA RESULT:    -5.293      2.753      4.654
REMARK INTER + INTRA:          -8.705
REMARK INTER:                  -7.613
REMARK INTRA:                  -1.091
REMARK UNBOUND:                -0.782
REMARK  Name = ZINC000005554638
REMARK                            x       y       z     vdW  Elec       q    Type
REMARK                         _______ _______ _______ _____ _____    ______ ____
ROOT
ATOM      1  C   LIG    1      -55.228  -8.059  15.640  0.00  0.00    -0.050 C 
ENDROOT
BRANCH   1   2
ATOM      2  C   LIG    1      -54.445  -8.446  14.385  0.00  0.00    +0.010 C 
ATOM      3  C   LIG    1      -54.731  -7.435  13.273  0.00  0.00    +0.020 C 
ENDBRANCH   1   2
BRANCH   1   4
ATOM      4  C   LIG    1      -56.040  -6.792  15.364  0.00  0.00    +0.030 C 
BRANCH   4   5
ATOM      5  C   LIG    1      -57.532  -7.109  15.467  0.00  0.00    +0.020 C 
BRANCH   5   7
ATOM      6  C   LIG    1      -58.412  -7.626  13.186  0.00  0.00    +0.000 C 
ATOM      7  C   LIG    1      -58.262  -6.537  14.250  0.00  0.00    -0.010 C 
ENDBRANCH   5   7
ENDBRANCH   4   5
ENDBRANCH   1   4
BRANCH   1   8
ATOM      8  C   LIG    1      -54.253  -7.799  16.791  0.00  0.00    +0.030 C 
BRANCH   8   9
ATOM      9  C   LIG    1      -54.709  -6.567  17.575  0.00  0.00    +0.260 C 
BRANCH   9  10
ATOM     10  N   LIG    1      -55.177  -6.980  18.905  0.00  0.00    -0.640 N 
ATOM     11  H   LIG    1      -54.441  -6.838  19.581  0.00  0.00    +0.430 HD
ATOM     12  H   LIG    1      -55.431  -7.958  18.885  0.00  0.00    +0.430 HD
ATOM     13  H   LIG    1      -55.982  -6.430  19.165  0.00  0.00    +0.440 HD
ENDBRANCH   9  10
ENDBRANCH   8   9
ENDBRANCH   1   8
BRANCH   1  14
ATOM     14  C   LIG    1      -56.175  -9.198  16.022  0.00  0.00    +0.020 C 
BRANCH  14  15
ATOM     15  C   LIG    1      -55.829 -10.445  15.206  0.00  0.00    -0.010 C 
ATOM     16  C   LIG    1      -57.119 -11.142  14.769  0.00  0.00    +0.010 C 
ENDBRANCH  14  15
ENDBRANCH   1  14
TORSDOF 9
ENDMDL
MODEL 4
REMARK VINA RESULT:    -5.182      2.599      4.291
REMARK INTER + INTRA:          -8.539
REMARK INTER:                  -7.420
REMARK INTRA:                  -1.119
REMARK UNBOUND:                -0.782
REMARK  Name = ZINC000005554638
REMARK                            x       y       z     vdW  Elec       q    Type
REMARK                         _______ _______ _______ _____ _____    ______ ____
ROOT
ATOM      1  C   LIG    1      -57.333  -7.297  14.812  0.00  0.00    -0.050 C 
ENDROOT
BRANCH   1   2
ATOM      2  C   LIG    1      -58.381  -6.218  14.534  0.00  0.00    +0.010 C 
ATOM      3  C   LIG    1      -59.485  -6.295  15.590  0.00  0.00    +0.020 C 
ENDBRANCH   1   2
BRANCH   1   4
ATOM      4  C   LIG    1      -57.610  -8.516  13.929  0.00  0.00    +0.030 C 
BRANCH   4   5
ATOM      5  C   LIG    1      -58.157  -9.656  14.789  0.00  0.00    +0.020 C 
BRANCH   5   7
ATOM      6  C   LIG    1      -56.084 -10.976  15.242  0.00  0.00    +0.000 C 
ATOM      7  C   LIG    1      -57.402 -10.947  14.465  0.00  0.00    -0.010 C 
ENDBRANCH   5   7
ENDBRANCH   4   5
ENDBRANCH   1   4
BRANCH   1   8
ATOM      8  C   LIG    1      -57.402  -7.708  16.284  0.00  0.00    +0.030 C 
BRANCH   8   9
ATOM      9  C   LIG    1      -56.219  -7.097  17.039  0.00  0.00    +0.260 C 
BRANCH   9  10
ATOM     10  N   LIG    1      -56.721  -6.256  18.135  0.00  0.00    -0.640 N 
ATOM     11  H   LIG    1      -55.942  -5.894  18.665  0.00  0.00    +0.430 HD
ATOM     12  H   LIG    1      -57.311  -6.809  18.740  0.00  0.00    +0.430 HD
ATOM     13  H   LIG    1      -57.254  -5.489  17.754  0.00  0.00    +0.440 HD
ENDBRANCH   9  10
ENDBRANCH   8   9
ENDBRANCH   1   8
BRANCH   1  14
ATOM     14  C   LIG    1      -55.940  -6.748  14.500  0.00  0.00    +0.020 C 
BRANCH  14  15
ATOM     15  C   LIG    1      -55.223  -7.693  13.532  0.00  0.00    -0.010 C 
ATOM     16  C   LIG    1      -53.878  -8.109  14.129  0.00  0.00    +0.010 C 
ENDBRANCH  14  15
ENDBRANCH   1  14
TORSDOF 9
ENDMDL
MODEL 5
REMARK VINA RESULT:    -5.177      1.872      2.567
REMARK INTER + INTRA:          -8.532
REMARK INTER:                  -7.464
REMARK INTRA:                  -1.068
REMARK UNBOUND:                -0.782
REMARK  Name = ZINC000005554638
REMARK                            x       y       z     vdW  Elec       q    Type
REMARK                         _______ _______ _______ _____ _____    ______ ____
ROOT
ATOM      1  C   LIG    1      -58.961  -9.970  14.161  0.00  0.00    -0.050 C 
ENDROOT
BRANCH   1   2
ATOM      2  C   LIG    1      -60.066 -11.002  13.930  0.00  0.00    +0.010 C 
ATOM      3  C   LIG    1      -60.534 -11.558  15.277  0.00  0.00    +0.020 C 
ENDBRANCH   1   2
BRANCH   1   4
ATOM      4  C   LIG    1      -59.518  -8.565  13.921  0.00  0.00    +0.030 C 
BRANCH   4   5
ATOM      5  C   LIG    1      -58.463  -7.711  13.217  0.00  0.00    +0.020 C 
BRANCH   5   7
ATOM      6  C   LIG    1      -59.068  -6.376  15.241  0.00  0.00    +0.000 C 
ATOM      7  C   LIG    1      -58.019  -6.579  14.145  0.00  0.00    -0.010 C 
ENDBRANCH   5   7
ENDBRANCH   4   5
ENDBRANCH   1   4
BRANCH   1   8
ATOM      8  C   LIG    1      -57.805 -10.233  13.194  0.00  0.00    +0.030 C 
BRANCH   8   9
ATOM      9  C   LIG    1      -58.088 -11.508  12.398  0.00  0.00    +0.260 C 
BRANCH   9  10
ATOM     10  N   LIG    1      -57.308 -11.490  11.152  0.00  0.00    -0.640 N 
ATOM     11  H   LIG    1      -57.337 -12.403  10.724  0.00  0.00    +0.430 HD
ATOM     12  H   LIG    1      -56.350 -11.245  11.358  0.00  0.00    +0.430 HD
ATOM     13  H   LIG    1      -57.701 -10.810  10.519  0.00  0.00    +0.440 HD
ENDBRANCH   9  10
ENDBRANCH   8   9
ENDBRANCH   1   8
BRANCH   1  14
ATOM     14  C   LIG    1      -58.455 -10.078  15.601  0.00  0.00    +0.020 C 
BRANCH  14  15
ATOM     15  C   LIG    1      -56.927  -9.996  15.613  0.00  0.00    -0.010 C 
ATOM     16  C   LIG    1      -56.464  -9.311  16.900  0.00  0.00    +0.010 C 
ENDBRANCH  14  15
ENDBRANCH   1  14
TORSDOF 9
ENDMDL
MODEL 6
REMARK VINA RESULT:    -5.130      2.633      3.792
REMARK INTER + INTRA:          -8.461
REMARK INTER:                  -7.386
REMARK INTRA:                  -1.074
REMARK UNBOUND:                -0.782
REMARK  Name = ZINC000005554638
REMARK                            x       y       z     vdW  Elec       q    Type
REMARK                         _______ _______ _______ _____ _____    ______ ____
ROOT
ATOM      1  C   LIG    1      -58.948 -10.114  14.831  0.00  0.00    -0.050 C 
ENDROOT
BRANCH   1   2
ATOM      2  C   LIG    1      -59.717  -8.852  15.225  0.00  0.00    +0.010 C 
ATOM      3  C   LIG    1      -58.790  -7.912  15.999  0.00  0.00    +0.020 C 
ENDBRANCH   1   2
BRANCH   1   4
ATOM      4  C   LIG    1      -58.629 -10.071  13.335  0.00  0.00    +0.030 C 
BRANCH   4   5
ATOM      5  C   LIG    1      -59.292  -8.845  12.707  0.00  0.00    +0.020 C 
BRANCH   5   7
ATOM      6  C   LIG    1      -57.142  -7.573  12.755  0.00  0.00    +0.000 C 
ATOM      7  C   LIG    1      -58.268  -8.089  11.857  0.00  0.00    -0.010 C 
ENDBRANCH   5   7
ENDBRANCH   4   5
ENDBRANCH   1   4
BRANCH   1   8
ATOM      8  C   LIG    1      -59.801 -11.348  15.135  0.00  0.00    +0.030 C 
BRANCH   8   9
ATOM      9  C   LIG    1      -59.692 -12.341  13.976  0.00  0.00    +0.260 C 
BRANCH   9  10
ATOM     10  N   LIG    1      -59.464 -13.691  14.509  0.00  0.00    -0.640 N 
ATOM     11  H   LIG    1      -58.775 -13.651  15.245  0.00  0.00    +0.430 HD
ATOM     12  H   LIG    1      -59.131 -14.293  13.769  0.00  0.00    +0.430 HD
ATOM     13  H   LIG    1      -60.328 -14.059  14.877  0.00  0.00    +0.440 HD
ENDBRANCH   9  10
ENDBRANCH   8   9
ENDBRANCH   1   8
BRANCH   1  14
ATOM     14  C   LIG    1      -57.644 -10.187  15.628  0.00  0.00    +0.020 C 
BRANCH  14  15
ATOM     15  C   LIG    1      -56.552 -10.821  14.764  0.00  0.00    -0.010 C 
ATOM     16  C   LIG    1      -55.256 -10.022  14.913  0.00  0.00    +0.010 C 
ENDBRANCH  14  15
ENDBRANCH   1  14
TORSDOF 9
ENDMDL
MODEL 7
REMARK VINA RESULT:    -5.128      2.144      4.490
REMARK INTER + INTRA:          -8.458
REMARK INTER:                  -7.326
REMARK INTRA:                  -1.132
REMARK UNBOUND:                -0.782
REMARK  Name = ZINC000005554638
REMARK                            x       y       z     vdW  Elec       q    Type
REMARK                         _______ _______ _______ _____ _____    ______ ____
ROOT
ATOM      1  C   LIG    1      -55.240  -7.838  15.118  0.00  0.00    -0.050 C 
ENDROOT
BRANCH   1   2
ATOM      2  C   LIG    1      -53.875  -7.474  15.705  0.00  0.00    +0.010 C 
ATOM      3  C   LIG    1      -53.904  -7.668  17.222  0.00  0.00    +0.020 C 
ENDBRANCH   1   2
BRANCH   1   4
ATOM      4  C   LIG    1      -55.078  -8.212  13.644  0.00  0.00    +0.030 C 
BRANCH   4   5
ATOM      5  C   LIG    1      -55.885  -7.243  12.779  0.00  0.00    +0.020 C 
BRANCH   5   7
ATOM      6  C   LIG    1      -58.242  -7.995  12.425  0.00  0.00    +0.000 C 
ATOM      7  C   LIG    1      -56.820  -8.034  11.862  0.00  0.00    -0.010 C 
ENDBRANCH   5   7
ENDBRANCH   4   5
ENDBRANCH   1   4
BRANCH   1   8
ATOM      8  C   LIG    1      -56.184  -6.640  15.240  0.00  0.00    +0.030 C 
BRANCH   8   9
ATOM      9  C   LIG    1      -57.401  -7.034  16.081  0.00  0.00    +0.260 C 
BRANCH   9  10
ATOM     10  N   LIG    1      -58.562  -6.236  15.665  0.00  0.00    -0.640 N 
ATOM     11  H   LIG    1      -59.024  -5.863  16.481  0.00  0.00    +0.430 HD
ATOM     12  H   LIG    1      -59.206  -6.820  15.152  0.00  0.00    +0.430 HD
ATOM     13  H   LIG    1      -58.255  -5.476  15.076  0.00  0.00    +0.440 HD
ENDBRANCH   9  10
ENDBRANCH   8   9
ENDBRANCH   1   8
BRANCH   1  14
ATOM     14  C   LIG    1      -55.824  -9.027  15.884  0.00  0.00    +0.020 C 
BRANCH  14  15
ATOM     15  C   LIG    1      -55.773 -10.277  15.003  0.00  0.00    -0.010 C 
ATOM     16  C   LIG    1      -57.171 -10.891  14.909  0.00  0.00    +0.010 C 
ENDBRANCH  14  15
ENDBRANCH   1  14
TORSDOF 9
ENDMDL
MODEL 8
REMARK VINA RESULT:    -5.120      2.810      4.688
REMARK INTER + INTRA:          -8.445
REMARK INTER:                  -7.210
REMARK INTRA:                  -1.236
REMARK UNBOUND:                -0.782
REMARK  Name = ZINC000005554638
REMARK                            x       y       z     vdW  Elec       q    Type
REMARK                         _______ _______ _______ _____ _____    ______ ____
ROOT
ATOM      1  C   LIG    1      -55.793  -8.023  15.393  0.00  0.00    -0.050 C 
ENDROOT
BRANCH   1   2
ATOM      2  C   LIG    1      -56.660  -9.220  15.790  0.00  0.00    +0.010 C 
ATOM      3  C   LIG    1      -56.316 -10.416  14.899  0.00  0.00    +0.020 C 
ENDBRANCH   1   2
BRANCH   1   4
ATOM      4  C   LIG    1      -55.236  -8.242  13.985  0.00  0.00    +0.030 C 
BRANCH   4   5
ATOM      5  C   LIG    1      -55.533  -7.015  13.122  0.00  0.00    +0.020 C 
BRANCH   5   7
ATOM      6  C   LIG    1      -57.596  -7.977  12.091  0.00  0.00    +0.000 C 
ATOM      7  C   LIG    1      -56.184  -7.459  11.811  0.00  0.00    -0.010 C 
ENDBRANCH   5   7
ENDBRANCH   4   5
ENDBRANCH   1   4
BRANCH   1   8
ATOM      8  C   LIG    1      -54.635  -7.882  16.384  0.00  0.00    +0.030 C 
BRANCH   8   9
ATOM      9  C   LIG    1      -55.090  -8.348  17.769  0.00  0.00    +0.260 C 
BRANCH   9  10
ATOM     10  N   LIG    1      -55.151  -7.195  18.677  0.00  0.00    -0.640 N 
ATOM     11  H   LIG    1      -55.096  -6.341  18.143  0.00  0.00    +0.430 HD
ATOM     12  H   LIG    1      -54.378  -7.236  19.326  0.00  0.00    +0.430 HD
ATOM     13  H   LIG    1      -56.020  -7.215  19.189  0.00  0.00    +0.440 HD
ENDBRANCH   9  10
ENDBRANCH   8   9
ENDBRANCH   1   8
BRANCH   1  14
ATOM     14  C   LIG    1      -56.640  -6.750  15.414  0.00  0.00    +0.020 C 
BRANCH  14  15
ATOM     15  C   LIG    1      -58.060  -7.088  15.876  0.00  0.00    -0.010 C 
ATOM     16  C   LIG    1      -59.066  -6.259  15.077  0.00  0.00    +0.010 C 
ENDBRANCH  14  15
ENDBRANCH   1  14
TORSDOF 9
ENDMDL
MODEL 9
REMARK VINA RESULT:    -5.115      1.874      3.866
REMARK INTER + INTRA:          -8.438
REMARK INTER:                  -7.499
REMARK INTRA:                  -0.940
REMARK UNBOUND:                -0.782
REMARK  Name = ZINC000005554638
REMARK                            x       y       z     vdW  Elec       q    Type
REMARK                         _______ _______ _______ _____ _____    ______ ____
ROOT
ATOM      1  C   LIG    1      -56.581  -7.815  14.140  0.00  0.00    -0.050 C 
ENDROOT
BRANCH   1   2
ATOM      2  C   LIG    1      -55.409  -7.354  13.272  0.00  0.00    +0.010 C 
ATOM      3  C   LIG    1      -54.093  -7.804  13.913  0.00  0.00    +0.020 C 
ENDBRANCH   1   2
BRANCH   1   4
ATOM      4  C   LIG    1      -56.108  -8.912  15.095  0.00  0.00    +0.030 C 
BRANCH   4   5
ATOM      5  C   LIG    1      -57.032  -8.963  16.312  0.00  0.00    +0.020 C 
BRANCH   5   7
ATOM      6  C   LIG    1      -55.142  -8.130  17.718  0.00  0.00    +0.000 C 
ATOM      7  C   LIG    1      -56.204  -9.222  17.572  0.00  0.00    -0.010 C 
ENDBRANCH   5   7
ENDBRANCH   4   5
ENDBRANCH   1   4
BRANCH   1   8
ATOM      8  C   LIG    1      -57.695  -8.363  13.244  0.00  0.00    +0.030 C 
BRANCH   8   9
ATOM      9  C   LIG    1      -57.137  -8.631  11.845  0.00  0.00    +0.260 C 
BRANCH   9  10
ATOM     10  N   LIG    1      -57.467 -10.005  11.442  0.00  0.00    -0.640 N 
ATOM     11  H   LIG    1      -57.983 -10.458  12.181  0.00  0.00    +0.430 HD
ATOM     12  H   LIG    1      -56.616 -10.517  11.262  0.00  0.00    +0.430 HD
ATOM     13  H   LIG    1      -58.029  -9.984  10.604  0.00  0.00    +0.440 HD
ENDBRANCH   9  10
ENDBRANCH   8   9
ENDBRANCH   1   8
BRANCH   1  14
ATOM     14  C   LIG    1      -57.114  -6.630  14.948  0.00  0.00    +0.020 C 
BRANCH  14  15
ATOM     15  C   LIG    1      -58.472  -6.200  14.388  0.00  0.00    -0.010 C 
ATOM     16  C   LIG    1      -59.507  -6.189  15.515  0.00  0.00    +0.010 C 
ENDBRANCH  14  15
ENDBRANCH   1  14
TORSDOF 9
ENDMDL
MODEL 10
REMARK VINA RESULT:    -5.099      2.679      4.188
REMARK INTER + INTRA:          -8.415
REMARK INTER:                  -7.247
REMARK INTRA:                  -1.168
REMARK UNBOUND:                -0.782
REMARK  Name = ZINC000005554638
REMARK                            x       y       z     vdW  Elec       q    Type
REMARK                         _______ _______ _______ _____ _____    ______ ____
ROOT
ATOM      1  C   LIG    1      -57.750 -10.310  14.406  0.00  0.00    -0.050 C 
ENDROOT
BRANCH   1   2
ATOM      2  C   LIG    1      -56.900  -9.694  15.518  0.00  0.00    +0.010 C 
ATOM      3  C   LIG    1      -55.425  -9.729  15.110  0.00  0.00    +0.020 C 
ENDBRANCH   1   2
BRANCH   1   4
ATOM      4  C   LIG    1      -59.148  -9.688  14.430  0.00  0.00    +0.030 C 
BRANCH   4   5
ATOM      5  C   LIG    1      -59.297  -8.816  15.677  0.00  0.00    +0.020 C 
BRANCH   5   7
ATOM      6  C   LIG    1      -58.757  -6.492  14.936  0.00  0.00    +0.000 C 
ATOM      7  C   LIG    1      -59.889  -7.461  15.285  0.00  0.00    -0.010 C 
ENDBRANCH   5   7
ENDBRANCH   4   5
ENDBRANCH   1   4
BRANCH   1   8
ATOM      8  C   LIG    1      -57.860 -11.821  14.623  0.00  0.00    +0.030 C 
BRANCH   8   9
ATOM      9  C   LIG    1      -59.180 -12.325  14.036  0.00  0.00    +0.260 C 
BRANCH   9  10
ATOM     10  N   LIG    1      -59.463 -13.671  14.553  0.00  0.00    -0.640 N 
ATOM     11  H   LIG    1      -58.684 -14.280  14.353  0.00  0.00    +0.430 HD
ATOM     12  H   LIG    1      -60.295 -14.034  14.111  0.00  0.00    +0.430 HD
ATOM     13  H   LIG    1      -59.605 -13.625  15.551  0.00  0.00    +0.440 HD
ENDBRANCH   9  10
ENDBRANCH   8   9
ENDBRANCH   1   8
BRANCH   1  14
ATOM     14  C   LIG    1      -57.095 -10.036  13.051  0.00  0.00    +0.020 C 
BRANCH  14  15
ATOM     15  C   LIG    1      -57.966  -9.067  12.248  0.00  0.00    -0.010 C 
ATOM     16  C   LIG    1      -57.140  -7.838  11.864  0.00  0.00    +0.010 C 
ENDBRANCH  14  15
ENDBRANCH   1  14
TORSDOF 9
ENDMDL
MODEL 11
REMARK VINA RESULT:    -5.003      2.284      3.831
REMARK INTER + INTRA:          -8.272
REMARK INTER:                  -7.241
REMARK INTRA:                  -1.030
REMARK UNBOUND:                -0.782
REMARK  Name = ZINC000005554638
REMARK                            x       y       z     vdW  Elec       q    Type
REMARK                         _______ _______ _______ _____ _____    ______ ____
ROOT
ATOM      1  C   LIG    1      -56.555  -8.377  13.717  0.00  0.00    -0.050 C 
ENDROOT
BRANCH   1   2
ATOM      2  C   LIG    1      -56.980  -8.394  12.248  0.00  0.00    +0.010 C 
ATOM      3  C   LIG    1      -56.204  -7.321  11.480  0.00  0.00    +0.020 C 
ENDBRANCH   1   2
BRANCH   1   4
ATOM      4  C   LIG    1      -55.495  -7.294  13.929  0.00  0.00    +0.030 C 
BRANCH   4   5
ATOM      5  C   LIG    1      -54.386  -7.833  14.833  0.00  0.00    +0.020 C 
BRANCH   5   7
ATOM      6  C   LIG    1      -54.826  -8.045  17.283  0.00  0.00    +0.000 C 
ATOM      7  C   LIG    1      -54.406  -7.086  16.167  0.00  0.00    -0.010 C 
ENDBRANCH   5   7
ENDBRANCH   4   5
ENDBRANCH   1   4
BRANCH   1   8
ATOM      8  C   LIG    1      -55.973  -9.740  14.097  0.00  0.00    +0.030 C 
BRANCH   8   9
ATOM      9  C   LIG    1      -57.041 -10.567  14.816  0.00  0.00    +0.260 C 
BRANCH   9  10
ATOM     10  N   LIG    1      -57.202 -11.858  14.135  0.00  0.00    -0.640 N 
ATOM     11  H   LIG    1      -57.274 -11.708  13.140  0.00  0.00    +0.430 HD
ATOM     12  H   LIG    1      -58.041 -12.313  14.467  0.00  0.00    +0.430 HD
ATOM     13  H   LIG    1      -56.404 -12.444  14.329  0.00  0.00    +0.440 HD
ENDBRANCH   9  10
ENDBRANCH   8   9
ENDBRANCH   1   8
BRANCH   1  14
ATOM     14  C   LIG    1      -57.771  -8.079  14.597  0.00  0.00    +0.020 C 
BRANCH  14  15
ATOM     15  C   LIG    1      -57.950  -6.565  14.724  0.00  0.00    -0.010 C 
ATOM     16  C   LIG    1      -59.290  -6.265  15.398  0.00  0.00    +0.010 C 
ENDBRANCH  14  15
ENDBRANCH   1  14
TORSDOF 9
ENDMDL
MODEL 12
REMARK VINA RESULT:    -4.996      1.780      4.135
REMARK INTER + INTRA:          -8.260
REMARK INTER:                  -7.181
REMARK INTRA:                  -1.079
REMARK UNBOUND:                -0.782
REMARK  Name = ZINC000005554638
REMARK                            x       y       z     vdW  Elec       q    Type
REMARK                         _______ _______ _______ _____ _____    ______ ____
ROOT
ATOM      1  C   LIG    1      -56.545  -7.800  13.979  0.00  0.00    -0.050 C 
ENDROOT
BRANCH   1   2
ATOM      2  C   LIG    1      -55.135  -7.213  13.904  0.00  0.00    +0.010 C 
ATOM      3  C   LIG    1      -54.107  -8.345  13.959  0.00  0.00    +0.020 C 
ENDBRANCH   1   2
BRANCH   1   4
ATOM      4  C   LIG    1      -56.457  -9.309  14.215  0.00  0.00    +0.030 C 
BRANCH   4   5
ATOM      5  C   LIG    1      -57.188  -9.667  15.510  0.00  0.00    +0.020 C 
BRANCH   5   7
ATOM      6  C   LIG    1      -59.655 -10.062  15.537  0.00  0.00    +0.000 C 
ATOM      7  C   LIG    1      -58.294 -10.680  15.209  0.00  0.00    -0.010 C 
ENDBRANCH   5   7
ENDBRANCH   4   5
ENDBRANCH   1   4
BRANCH   1   8
ATOM      8  C   LIG    1      -57.280  -7.533  12.664  0.00  0.00    +0.030 C 
BRANCH   8   9
ATOM      9  C   LIG    1      -57.733  -8.861  12.054  0.00  0.00    +0.260 C 
BRANCH   9  10
ATOM     10  N   LIG    1      -59.200  -8.933  12.073  0.00  0.00    -0.640 N 
ATOM     11  H   LIG    1      -59.582  -8.007  12.187  0.00  0.00    +0.430 HD
ATOM     12  H   LIG    1      -59.499  -9.516  12.843  0.00  0.00    +0.430 HD
ATOM     13  H   LIG    1      -59.530  -9.328  11.206  0.00  0.00    +0.440 HD
ENDBRANCH   9  10
ENDBRANCH   8   9
ENDBRANCH   1   8
BRANCH   1  14
ATOM     14  C   LIG    1      -57.310  -7.147  15.132  0.00  0.00    +0.020 C 
BRANCH  14  15
ATOM     15  C   LIG    1      -58.374  -6.202  14.569  0.00  0.00    -0.010 C 
ATOM     16  C   LIG    1      -59.584  -6.181  15.504  0.00  0.00    +0.010 C 
ENDBRANCH  14  15
ENDBRANCH   1  14
TORSDOF 9
ENDMDL
MODEL 13
REMARK VINA RESULT:    -4.994      1.589      2.658
REMARK INTER + INTRA:          -8.258
REMARK INTER:                  -7.405
REMARK INTRA:                  -0.853
REMARK UNBOUND:                -0.782
REMARK  Name = ZINC000005554638
REMARK                            x       y       z     vdW  Elec       q    Type
REMARK                         _______ _______ _______ _____ _____    ______ ____
ROOT
ATOM      1  C   LIG    1      -57.053  -7.563  14.449  0.00  0.00    -0.050 C 
ENDROOT
BRANCH   1   2
ATOM      2  C   LIG    1      -57.932  -6.312  14.490  0.00  0.00    +0.010 C 
ATOM      3  C   LIG    1      -59.170  -6.587  15.346  0.00  0.00    +0.020 C 
ENDBRANCH   1   2
BRANCH   1   4
ATOM      4  C   LIG    1      -56.212  -7.637  15.725  0.00  0.00    +0.030 C 
BRANCH   4   5
ATOM      5  C   LIG    1      -54.807  -7.104  15.442  0.00  0.00    +0.020 C 
BRANCH   5   7
ATOM      6  C   LIG    1      -54.698  -8.066  17.746  0.00  0.00    +0.000 C 
ATOM      7  C   LIG    1      -53.875  -7.481  16.596  0.00  0.00    -0.010 C 
ENDBRANCH   5   7
ENDBRANCH   4   5
ENDBRANCH   1   4
BRANCH   1   8
ATOM      8  C   LIG    1      -56.128  -7.499  13.232  0.00  0.00    +0.030 C 
BRANCH   8   9
ATOM      9  C   LIG    1      -56.918  -7.863  11.973  0.00  0.00    +0.260 C 
BRANCH   9  10
ATOM     10  N   LIG    1      -56.282  -7.246  10.801  0.00  0.00    -0.640 N 
ATOM     11  H   LIG    1      -55.485  -7.797  10.521  0.00  0.00    +0.430 HD
ATOM     12  H   LIG    1      -55.980  -6.311  11.035  0.00  0.00    +0.430 HD
ATOM     13  H   LIG    1      -56.944  -7.205  10.041  0.00  0.00    +0.440 HD
ENDBRANCH   9  10
ENDBRANCH   8   9
ENDBRANCH   1   8
BRANCH   1  14
ATOM     14  C   LIG    1      -57.939  -8.807  14.350  0.00  0.00    +0.020 C 
BRANCH  14  15
ATOM     15  C   LIG    1      -57.481  -9.844  15.379  0.00  0.00    -0.010 C 
ATOM     16  C   LIG    1      -57.141 -11.153  14.665  0.00  0.00    +0.010 C 
ENDBRANCH  14  15
ENDBRANCH   1  14
TORSDOF 9
ENDMDL
MODEL 14
REMARK VINA RESULT:    -4.913      2.515      3.719
REMARK INTER + INTRA:          -8.137
REMARK INTER:                  -6.908
REMARK INTRA:                  -1.229
REMARK UNBOUND:                -0.782
REMARK  Name = ZINC000005554638
REMARK                            x       y       z     vdW  Elec       q    Type
REMARK                         _______ _______ _______ _____ _____    ______ ____
ROOT
ATOM      1  C   LIG    1      -57.991  -8.992  14.815  0.00  0.00    -0.050 C 
ENDROOT
BRANCH   1   2
ATOM      2  C   LIG    1      -57.928 -10.440  14.326  0.00  0.00    +0.010 C 
ATOM      3  C   LIG    1      -56.646 -11.097  14.841  0.00  0.00    +0.020 C 
ENDBRANCH   1   2
BRANCH   1   4
ATOM      4  C   LIG    1      -56.599  -8.547  15.267  0.00  0.00    +0.030 C 
BRANCH   4   5
ATOM      5  C   LIG    1      -56.527  -7.019  15.268  0.00  0.00    +0.020 C 
BRANCH   5   7
ATOM      6  C   LIG    1      -54.469  -7.774  14.070  0.00  0.00    +0.000 C 
ATOM      7  C   LIG    1      -55.187  -6.570  14.683  0.00  0.00    -0.010 C 
ENDBRANCH   5   7
ENDBRANCH   4   5
ENDBRANCH   1   4
BRANCH   1   8
ATOM      8  C   LIG    1      -58.966  -8.891  15.989  0.00  0.00    +0.030 C 
BRANCH   8   9
ATOM      9  C   LIG    1      -60.259  -9.633  15.643  0.00  0.00    +0.260 C 
BRANCH   9  10
ATOM     10  N   LIG    1      -60.725 -10.380  16.819  0.00  0.00    -0.640 N 
ATOM     11  H   LIG    1      -61.025 -11.300  16.537  0.00  0.00    +0.430 HD
ATOM     12  H   LIG    1      -61.499  -9.889  17.245  0.00  0.00    +0.430 HD
ATOM     13  H   LIG    1      -59.972 -10.462  17.486  0.00  0.00    +0.440 HD
ENDBRANCH   9  10
ENDBRANCH   8   9
ENDBRANCH   1   8
BRANCH   1  14
ATOM     14  C   LIG    1      -58.470  -8.090  13.676  0.00  0.00    +0.020 C 
BRANCH  14  15
ATOM     15  C   LIG    1      -58.161  -8.755  12.333  0.00  0.00    -0.010 C 
ATOM     16  C   LIG    1      -57.246  -7.846  11.512  0.00  0.00    +0.010 C 
ENDBRANCH  14  15
ENDBRANCH   1  14
TORSDOF 9
ENDMDL
MODEL 15
REMARK VINA RESULT:    -4.906      8.753     11.118
REMARK INTER + INTRA:          -8.125
REMARK INTER:                  -6.925
REMARK INTRA:                  -1.200
REMARK UNBOUND:                -0.782
REMARK  Name = ZINC000005554638
REMARK                            x       y       z     vdW  Elec       q    Type
REMARK                         _______ _______ _______ _____ _____    ______ ____
ROOT
ATOM      1  C   LIG    1      -59.735 -15.572   6.978  0.00  0.00    -0.050 C 
ENDROOT
BRANCH   1   2
ATOM      2  C   LIG    1      -59.723 -15.245   5.484  0.00  0.00    +0.010 C 
ATOM      3  C   LIG    1      -61.160 -15.215   4.958  0.00  0.00    +0.020 C 
ENDBRANCH   1   2
BRANCH   1   4
ATOM      4  C   LIG    1      -60.983 -16.392   7.311  0.00  0.00    +0.030 C 
BRANCH   4   5
ATOM      5  C   LIG    1      -60.590 -17.852   7.538  0.00  0.00    +0.020 C 
BRANCH   5   7
ATOM      6  C   LIG    1      -60.183 -19.112   5.419  0.00  0.00    +0.000 C 
ATOM      7  C   LIG    1      -61.234 -18.729   6.462  0.00  0.00    -0.010 C 
ENDBRANCH   5   7
ENDBRANCH   4   5
ENDBRANCH   1   4
BRANCH   1   8
ATOM      8  C   LIG    1      -59.748 -14.273   7.786  0.00  0.00    +0.030 C 
BRANCH   8   9
ATOM      9  C   LIG    1      -61.070 -14.160   8.548  0.00  0.00    +0.260 C 
BRANCH   9  10
ATOM     10  N   LIG    1      -61.376 -12.744   8.792  0.00  0.00    -0.640 N 
ATOM     11  H   LIG    1      -61.364 -12.562   9.784  0.00  0.00    +0.430 HD
ATOM     12  H   LIG    1      -62.290 -12.528   8.422  0.00  0.00    +0.430 HD
ATOM     13  H   LIG    1      -60.685 -12.167   8.336  0.00  0.00    +0.440 HD
ENDBRANCH   9  10
ENDBRANCH   8   9
ENDBRANCH   1   8
BRANCH   1  14
ATOM     14  C   LIG    1      -58.485 -16.380   7.333  0.00  0.00    +0.020 C 
BRANCH  14  15
ATOM     15  C   LIG    1      -57.401 -16.131   6.282  0.00  0.00    -0.010 C 
ATOM     16  C   LIG    1      -56.824 -17.470   5.818  0.00  0.00    +0.010 C 
ENDBRANCH  14  15
ENDBRANCH   1  14
TORSDOF 9
ENDMDL
MODEL 16
REMARK VINA RESULT:    -4.815      2.071      3.119
REMARK INTER + INTRA:          -7.989
REMARK INTER:                  -7.166
REMARK INTRA:                  -0.823
REMARK UNBOUND:                -0.782
REMARK  Name = ZINC000005554638
REMARK                            x       y       z     vdW  Elec       q    Type
REMARK                         _______ _______ _______ _____ _____    ______ ____
ROOT
ATOM      1  C   LIG    1      -57.961  -8.630  14.011  0.00  0.00    -0.050 C 
ENDROOT
BRANCH   1   2
ATOM      2  C   LIG    1      -57.937  -7.163  13.580  0.00  0.00    +0.010 C 
ATOM      3  C   LIG    1      -58.270  -6.274  14.780  0.00  0.00    +0.020 C 
ENDBRANCH   1   2
BRANCH   1   4
ATOM      4  C   LIG    1      -57.322  -8.765  15.394  0.00  0.00    +0.030 C 
BRANCH   4   5
ATOM      5  C   LIG    1      -55.872  -9.226  15.245  0.00  0.00    +0.020 C 
BRANCH   5   7
ATOM      6  C   LIG    1      -55.509  -8.428  17.584  0.00  0.00    +0.000 C 
ATOM      7  C   LIG    1      -54.972  -8.385  16.152  0.00  0.00    -0.010 C 
ENDBRANCH   5   7
ENDBRANCH   4   5
ENDBRANCH   1   4
BRANCH   1   8
ATOM      8  C   LIG    1      -57.176  -9.472  13.002  0.00  0.00    +0.030 C 
BRANCH   8   9
ATOM      9  C   LIG    1      -58.030 -10.661  12.557  0.00  0.00    +0.260 C 
BRANCH   9  10
ATOM     10  N   LIG    1      -57.332 -11.392  11.491  0.00  0.00    -0.640 N 
ATOM     11  H   LIG    1      -56.382 -11.062  11.422  0.00  0.00    +0.430 HD
ATOM     12  H   LIG    1      -57.806 -11.240  10.611  0.00  0.00    +0.430 HD
ATOM     13  H   LIG    1      -57.330 -12.378  11.704  0.00  0.00    +0.440 HD
ENDBRANCH   9  10
ENDBRANCH   8   9
ENDBRANCH   1   8
BRANCH   1  14
ATOM     14  C   LIG    1      -59.409  -9.122  14.067  0.00  0.00    +0.020 C 
BRANCH  14  15
ATOM     15  C   LIG    1      -59.780  -9.451  15.515  0.00  0.00    -0.010 C 
ATOM     16  C   LIG    1      -60.386 -10.854  15.579  0.00  0.00    +0.010 C 
ENDBRANCH  14  15
ENDBRANCH   1  14
TORSDOF 9
ENDMDL
MODEL 17
REMARK VINA RESULT:    -4.770      2.173      3.765
REMARK INTER + INTRA:          -7.922
REMARK INTER:                  -7.080
REMARK INTRA:                  -0.842
REMARK UNBOUND:                -0.782
REMARK  Name = ZINC000005554638
REMARK                            x       y       z     vdW  Elec       q    Type
REMARK                         _______ _______ _______ _____ _____    ______ ____
ROOT
ATOM      1  C   LIG    1      -56.773  -8.242  13.907  0.00  0.00    -0.050 C 
ENDROOT
BRANCH   1   2
ATOM      2  C   LIG    1      -55.567  -7.375  13.544  0.00  0.00    +0.010 C 
ATOM      3  C   LIG    1      -54.280  -8.096  13.950  0.00  0.00    +0.020 C 
ENDBRANCH   1   2
BRANCH   1   4
ATOM      4  C   LIG    1      -56.818  -8.443  15.423  0.00  0.00    +0.030 C 
BRANCH   4   5
ATOM      5  C   LIG    1      -57.186  -7.124  16.103  0.00  0.00    +0.020 C 
BRANCH   5   7
ATOM      6  C   LIG    1      -55.546  -8.235  17.625  0.00  0.00    +0.000 C 
ATOM      7  C   LIG    1      -56.460  -7.021  17.445  0.00  0.00    -0.010 C 
ENDBRANCH   5   7
ENDBRANCH   4   5
ENDBRANCH   1   4
BRANCH   1   8
ATOM      8  C   LIG    1      -56.652  -9.601  13.215  0.00  0.00    +0.030 C 
BRANCH   8   9
ATOM      9  C   LIG    1      -56.767 -10.716  14.257  0.00  0.00    +0.260 C 
BRANCH   9  10
ATOM     10  N   LIG    1      -57.386 -11.898  13.643  0.00  0.00    -0.640 N 
ATOM     11  H   LIG    1      -56.887 -12.141  12.801  0.00  0.00    +0.430 HD
ATOM     12  H   LIG    1      -58.349 -11.694  13.416  0.00  0.00    +0.430 HD
ATOM     13  H   LIG    1      -57.350 -12.671  14.290  0.00  0.00    +0.440 HD
ENDBRANCH   9  10
ENDBRANCH   8   9
ENDBRANCH   1   8
BRANCH   1  14
ATOM     14  C   LIG    1      -58.057  -7.548  13.446  0.00  0.00    +0.020 C 
BRANCH  14  15
ATOM     15  C   LIG    1      -58.922  -8.541  12.667  0.00  0.00    -0.010 C 
ATOM     16  C   LIG    1      -60.130  -8.940  13.516  0.00  0.00    +0.010 C 
ENDBRANCH  14  15
ENDBRANCH   1  14
TORSDOF 9
ENDMDL
MODEL 18
REMARK VINA RESULT:    -4.632      2.398      3.854
REMARK INTER + INTRA:          -7.716
REMARK INTER:                  -6.742
REMARK INTRA:                  -0.975
REMARK UNBOUND:                -0.782
REMARK  Name = ZINC000005554638
REMARK                            x       y       z     vdW  Elec       q    Type
REMARK                         _______ _______ _______ _____ _____    ______ ____
ROOT
ATOM      1  C   LIG    1      -57.321  -8.862  14.963  0.00  0.00    -0.050 C 
ENDROOT
BRANCH   1   2
ATOM      2  C   LIG    1      -58.193 -10.066  14.602  0.00  0.00    +0.010 C 
ATOM      3  C   LIG    1      -57.378 -11.351  14.761  0.00  0.00    +0.020 C 
ENDBRANCH   1   2
BRANCH   1   4
ATOM      4  C   LIG    1      -55.853  -9.196  14.692  0.00  0.00    +0.030 C 
BRANCH   4   5
ATOM      5  C   LIG    1      -55.251  -8.141  13.764  0.00  0.00    +0.020 C 
BRANCH   5   7
ATOM      6  C   LIG    1      -53.905  -7.679  15.817  0.00  0.00    +0.000 C 
ATOM      7  C   LIG    1      -53.876  -7.724  14.288  0.00  0.00    -0.010 C 
ENDBRANCH   5   7
ENDBRANCH   4   5
ENDBRANCH   1   4
BRANCH   1   8
ATOM      8  C   LIG    1      -57.503  -8.524  16.444  0.00  0.00    +0.030 C 
BRANCH   8   9
ATOM      9  C   LIG    1      -57.509  -7.005  16.623  0.00  0.00    +0.260 C 
BRANCH   9  10
ATOM     10  N   LIG    1      -56.801  -6.656  17.862  0.00  0.00    -0.640 N 
ATOM     11  H   LIG    1      -57.252  -5.865  18.297  0.00  0.00    +0.430 HD
ATOM     12  H   LIG    1      -55.842  -6.419  17.647  0.00  0.00    +0.430 HD
ATOM     13  H   LIG    1      -56.819  -7.442  18.494  0.00  0.00    +0.440 HD
ENDBRANCH   9  10
ENDBRANCH   8   9
ENDBRANCH   1   8
BRANCH   1  14
ATOM     14  C   LIG    1      -57.735  -7.660  14.112  0.00  0.00    +0.020 C 
BRANCH  14  15
ATOM     15  C   LIG    1      -58.779  -8.098  13.082  0.00  0.00    -0.010 C 
ATOM     16  C   LIG    1      -58.238  -7.853  11.672  0.00  0.00    +0.010 C 
ENDBRANCH  14  15
ENDBRANCH   1  14
TORSDOF 9
ENDMDL
MODEL 19
REMARK VINA RESULT:    -4.605      1.857      3.848
REMARK INTER + INTRA:          -7.675
REMARK INTER:                  -6.893
REMARK INTRA:                  -0.782
REMARK UNBOUND:                -0.782
REMARK  Name = ZINC000005554638
REMARK                            x       y       z     vdW  Elec       q    Type
REMARK                         _______ _______ _______ _____ _____    ______ ____
ROOT
ATOM      1  C   LIG    1      -58.208  -9.023  14.209  0.00  0.00    -0.050 C 
ENDROOT
BRANCH   1   2
ATOM      2  C   LIG    1      -57.433 -10.229  13.677  0.00  0.00    +0.010 C 
ATOM      3  C   LIG    1      -56.645 -10.873  14.819  0.00  0.00    +0.020 C 
ENDBRANCH   1   2
BRANCH   1   4
ATOM      4  C   LIG    1      -59.709  -9.305  14.129  0.00  0.00    +0.030 C 
BRANCH   4   5
ATOM      5  C   LIG    1      -60.186  -9.914  15.448  0.00  0.00    +0.020 C 
BRANCH   5   7
ATOM      6  C   LIG    1      -61.287 -11.926  16.440  0.00  0.00    +0.000 C 
ATOM      7  C   LIG    1      -60.490 -11.400  15.244  0.00  0.00    -0.010 C 
ENDBRANCH   5   7
ENDBRANCH   4   5
ENDBRANCH   1   4
BRANCH   1   8
ATOM      8  C   LIG    1      -57.875  -7.789  13.367  0.00  0.00    +0.030 C 
BRANCH   8   9
ATOM      9  C   LIG    1      -58.079  -8.113  11.886  0.00  0.00    +0.260 C 
BRANCH   9  10
ATOM     10  N   LIG    1      -56.897  -7.689  11.124  0.00  0.00    -0.640 N 
ATOM     11  H   LIG    1      -56.928  -6.691  10.982  0.00  0.00    +0.430 HD
ATOM     12  H   LIG    1      -56.887  -8.156  10.229  0.00  0.00    +0.430 HD
ATOM     13  H   LIG    1      -56.062  -7.928  11.637  0.00  0.00    +0.440 HD
ENDBRANCH   9  10
ENDBRANCH   8   9
ENDBRANCH   1   8
BRANCH   1  14
ATOM     14  C   LIG    1      -57.815  -8.767  15.666  0.00  0.00    +0.020 C 
BRANCH  14  15
ATOM     15  C   LIG    1      -57.372  -7.311  15.827  0.00  0.00    -0.010 C 
ATOM     16  C   LIG    1      -56.824  -7.098  17.239  0.00  0.00    +0.010 C 
ENDBRANCH  14  15
ENDBRANCH   1  14
TORSDOF 9
ENDMDL
MODEL 20
REMARK VINA RESULT:    -4.574      1.615      3.956
REMARK INTER + INTRA:          -7.629
REMARK INTER:                  -6.850
REMARK INTRA:                  -0.779
REMARK UNBOUND:                -0.782
REMARK  Name = ZINC000005554638
REMARK                            x       y       z     vdW  Elec       q    Type
REMARK                         _______ _______ _______ _____ _____    ______ ____
ROOT
ATOM      1  C   LIG    1      -56.134  -7.520  14.547  0.00  0.00    -0.050 C 
ENDROOT
BRANCH   1   2
ATOM      2  C   LIG    1      -55.465  -8.733  15.195  0.00  0.00    +0.010 C 
ATOM      3  C   LIG    1      -54.399  -9.294  14.251  0.00  0.00    +0.020 C 
ENDBRANCH   1   2
BRANCH   1   4
ATOM      4  C   LIG    1      -57.654  -7.682  14.610  0.00  0.00    +0.030 C 
BRANCH   4   5
ATOM      5  C   LIG    1      -58.010  -8.777  15.615  0.00  0.00    +0.020 C 
BRANCH   5   7
ATOM      6  C   LIG    1      -59.983  -8.622  14.091  0.00  0.00    +0.000 C 
ATOM      7  C   LIG    1      -59.458  -9.219  15.398  0.00  0.00    -0.010 C 
ENDBRANCH   5   7
ENDBRANCH   4   5
ENDBRANCH   1   4
BRANCH   1   8
ATOM      8  C   LIG    1      -55.692  -7.414  13.085  0.00  0.00    +0.030 C 
BRANCH   8   9
ATOM      9  C   LIG    1      -56.920  -7.488  12.175  0.00  0.00    +0.260 C 
BRANCH   9  10
ATOM     10  N   LIG    1      -56.495  -7.399  10.772  0.00  0.00    -0.640 N 
ATOM     11  H   LIG    1      -56.295  -6.438  10.540  0.00  0.00    +0.430 HD
ATOM     12  H   LIG    1      -57.233  -7.742  10.174  0.00  0.00    +0.430 HD
ATOM     13  H   LIG    1      -55.666  -7.957  10.635  0.00  0.00    +0.440 HD
ENDBRANCH   9  10
ENDBRANCH   8   9
ENDBRANCH   1   8
BRANCH   1  14
ATOM     14  C   LIG    1      -55.724  -6.251  15.296  0.00  0.00    +0.020 C 
BRANCH  14  15
ATOM     15  C   LIG    1      -55.380  -6.602  16.745  0.00  0.00    -0.010 C 
ATOM     16  C   LIG    1      -54.098  -5.875  17.155  0.00  0.00    +0.010 C 
ENDBRANCH  14  15
ENDBRANCH   1  14
TORSDOF 9
ENDMDL
