MODEL        1
REMARK  Name = ZINC000001674684
REMARK                            x       y       z     vdW  Elec       q    Type
REMARK                         _______ _______ _______ _____ _____    ______ ____
ROOT
ATOM      1  C   LIG    1       -0.018   1.503   0.010  0.00  0.00    +0.100 C 
ATOM      2  C   LIG    1        0.002  -0.004   0.002  0.00  0.00    -0.080 A 
ATOM      3  C   LIG    1        0.006  -0.689  -1.196  0.00  0.00    +0.000 A 
ATOM      4  C   LIG    1        0.025  -2.072  -1.205  0.00  0.00    +0.000 A 
ATOM      5  C   LIG    1        0.040  -2.778  -0.015  0.00  0.00    -0.010 A 
ATOM      6  C   LIG    1        0.036  -2.105   1.190  0.00  0.00    +0.010 A 
ATOM      7  C   LIG    1        0.023  -0.710   1.206  0.00  0.00    -0.050 A 
ENDROOT
BRANCH   7   8
ATOM      8  C   LIG    1        0.019   0.018   2.493  0.00  0.00    -0.080 C 
ATOM      9  C   LIG    1        1.131   0.597   2.877  0.00  0.00    -0.040 C 
ATOM     10  C   LIG    1        1.275   1.359   4.162  0.00  0.00    +0.050 C 
ATOM     11  C   LIG    1       -0.104   1.721   4.717  0.00  0.00    +0.010 C 
ATOM     12  C   LIG    1       -0.971   0.456   4.729  0.00  0.00    +0.020 C 
ATOM     13  C   LIG    1       -1.258   0.055   3.279  0.00  0.00    +0.060 C 
ENDBRANCH   7   8
TORSDOF 1
ENDMDL
MODEL        2
REMARK  Name = ZINC000005241107
REMARK                            x       y       z     vdW  Elec       q    Type
REMARK                         _______ _______ _______ _____ _____    ______ ____
ROOT
ATOM      1  C   LIG    1       -0.018   1.503   0.010  0.00  0.00    +0.150 C 
ATOM      2  C   LIG    1        0.002  -0.004   0.002  0.00  0.00    -0.180 A 
ATOM      3  C   LIG    1       -1.080  -0.787   0.003  0.00  0.00    +0.000 A 
ATOM      4  C   LIG    1       -0.821  -2.143  -0.007  0.00  0.00    +0.020 A 
ATOM      5  C   LIG    1        0.488  -2.466  -0.015  0.00  0.00    -0.150 A 
ATOM      6  S   LIG    1        1.454  -0.996  -0.018  0.00  0.00    +0.120 S 
ENDROOT
BRANCH   5   7
ATOM      7  C   LIG    1        1.027  -3.842  -0.026  0.00  0.00    -0.020 A 
ATOM      8  C   LIG    1        0.159  -4.935  -0.035  0.00  0.00    +0.030 A 
ATOM      9  C   LIG    1        0.669  -6.217  -0.046  0.00  0.00    +0.020 A 
ATOM     10  C   LIG    1        2.037  -6.420  -0.049  0.00  0.00    +0.010 A 
ATOM     11  C   LIG    1        2.903  -5.341  -0.040  0.00  0.00    +0.020 A 
ATOM     12  C   LIG    1        2.406  -4.054  -0.035  0.00  0.00    +0.010 A 
ENDBRANCH   5   7
TORSDOF 1
ENDMDL
MODEL        3
REMARK  Name = ZINC000001685159
REMARK                            x       y       z     vdW  Elec       q    Type
REMARK                         _______ _______ _______ _____ _____    ______ ____
ROOT
ATOM      1  C   LIG    1        4.171  -0.963   1.400  0.00  0.00    +0.030 C 
ENDROOT
BRANCH   1   2
ATOM      2  C   LIG    1        3.711  -0.707  -0.037  0.00  0.00    +0.060 C 
BRANCH   2   6
ATOM      3  C   LIG    1       -0.017   1.378   0.010  0.00  0.00    -0.010 A 
ATOM      4  C   LIG    1        1.171   2.086   0.002  0.00  0.00    +0.000 A 
ATOM      5  C   LIG    1        2.377   1.411  -0.013  0.00  0.00    +0.000 A 
ATOM      6  C   LIG    1        2.396   0.029  -0.020  0.00  0.00    -0.080 A 
ATOM      7  C   LIG    1        1.208  -0.679  -0.011  0.00  0.00    +0.000 A 
ATOM      8  C   LIG    1        0.002  -0.004   0.002  0.00  0.00    +0.000 A 
ENDBRANCH   2   6
ENDBRANCH   1   2
BRANCH   1   9
ATOM      9  C   LIG    1        5.506  -1.710   1.382  0.00  0.00    +0.060 C 
BRANCH   9  10
ATOM     10  C   LIG    1        5.959  -1.962   2.797  0.00  0.00    -0.080 A 
ATOM     11  C   LIG    1        6.746  -1.031   3.448  0.00  0.00    +0.000 A 
ATOM     12  C   LIG    1        7.161  -1.262   4.746  0.00  0.00    +0.000 A 
ATOM     13  C   LIG    1        6.789  -2.425   5.394  0.00  0.00    -0.010 A 
ATOM     14  C   LIG    1        6.001  -3.356   4.744  0.00  0.00    +0.000 A 
ATOM     15  C   LIG    1        5.582  -3.123   3.447  0.00  0.00    +0.000 A 
ENDBRANCH   9  10
ENDBRANCH   1   9
TORSDOF 4
ENDMDL
MODEL        4
REMARK  Name = ZINC000001693233
REMARK                            x       y       z     vdW  Elec       q    Type
REMARK                         _______ _______ _______ _____ _____    ______ ____
ROOT
ATOM      1  C   LIG    1       -2.730  -2.793  -0.126  0.00  0.00    +0.030 C 
ENDROOT
BRANCH   1   2
ATOM      2  C   LIG    1       -1.446  -2.012  -0.005  0.00  0.00    +0.350 C 
ATOM      3  O   LIG    1       -0.389  -2.593   0.041  0.00  0.00    -0.440 OA
BRANCH   2   4
ATOM      4  C   LIG    1       -1.483  -0.507   0.060  0.00  0.00    +0.030 C 
BRANCH   4   6
ATOM      5  C   LIG    1       -0.084   1.562   0.121  0.00  0.00    +0.020 C 
ATOM      6  C   LIG    1       -0.057   0.033   0.180  0.00  0.00    -0.020 C 
ATOM      7  C   LIG    1        0.548  -0.415   1.513  0.00  0.00    +0.020 C 
ENDBRANCH   4   6
ENDBRANCH   2   4
ENDBRANCH   1   2
BRANCH   1   8
ATOM      8  C   LIG    1       -2.414  -4.289  -0.172  0.00  0.00    -0.010 C 
ATOM      9  C   LIG    1       -1.626  -4.606  -1.444  0.00  0.00    +0.030 C 
BRANCH   8  10
ATOM     10  C   LIG    1       -3.720  -5.086  -0.169  0.00  0.00    +0.010 C 
BRANCH  10  11
ATOM     11  C   LIG    1       -3.406  -6.580  -0.074  0.00  0.00    -0.030 C 
ATOM     12  C   LIG    1       -4.700  -7.384  -0.218  0.00  0.00    +0.000 C 
ATOM     13  C   LIG    1       -2.767  -6.882   1.283  0.00  0.00    +0.010 C 
ENDBRANCH  10  11
ENDBRANCH   8  10
ENDBRANCH   1   8
TORSDOF 6
ENDMDL
MODEL        5
REMARK  Name = ZINC000001690301
REMARK                            x       y       z     vdW  Elec       q    Type
REMARK                         _______ _______ _______ _____ _____    ______ ____
ROOT
ATOM      1  C   LIG    1        1.476  -4.051  -2.532  0.00  0.00    +0.030 C 
ENDROOT
BRANCH   1   2
ATOM      2  C   LIG    1        2.181  -4.537  -3.772  0.00  0.00    +0.350 C 
ATOM      3  O   LIG    1        2.622  -3.741  -4.567  0.00  0.00    -0.450 OA
BRANCH   2   4
ATOM      4  C   LIG    1        2.337  -6.015  -4.020  0.00  0.00    +0.030 C 
BRANCH   4   5
ATOM      5  C   LIG    1        3.083  -6.235  -5.338  0.00  0.00    -0.020 C 
ATOM      6  C   LIG    1        3.132  -7.732  -5.652  0.00  0.00    +0.020 C 
ATOM      7  C   LIG    1        4.508  -5.694  -5.213  0.00  0.00    +0.020 C 
ENDBRANCH   4   5
ENDBRANCH   2   4
ENDBRANCH   1   2
BRANCH   1   8
ATOM      8  C   LIG    1        1.455  -2.521  -2.524  0.00  0.00    +0.030 C 
BRANCH   8   9
ATOM      9  C   LIG    1        0.739  -2.027  -1.265  0.00  0.00    +0.000 C 
BRANCH   9  10
ATOM     10  C   LIG    1        0.718  -0.497  -1.257  0.00  0.00    +0.000 C 
BRANCH  10  12
ATOM     11  C   LIG    1       -0.019   1.526   0.010  0.00  0.00    +0.000 C 
ATOM     12  C   LIG    1        0.002  -0.004   0.002  0.00  0.00    -0.010 C 
ENDBRANCH  10  12
ENDBRANCH   9  10
ENDBRANCH   8   9
ENDBRANCH   1   8
TORSDOF 7
ENDMDL
MODEL        6
REMARK  Name = ZINC000146654190
REMARK                            x       y       z     vdW  Elec       q    Type
REMARK                         _______ _______ _______ _____ _____    ______ ____
ROOT
ATOM      1  C   LIG    1       -1.414  -2.036   0.129  0.00  0.00    -0.080 A 
ATOM      2  C   LIG    1       -0.780  -2.795  -0.837  0.00  0.00    +0.020 A 
ATOM      3  C   LIG    1       -0.762  -4.176  -0.731  0.00  0.00    +0.090 A 
ATOM      4  C   LIG    1       -1.379  -4.795   0.343  0.00  0.00    +0.020 A 
ATOM      5  C   LIG    1       -2.012  -4.036   1.308  0.00  0.00    +0.030 A 
ATOM      6  F   LIG    1       -0.143  -4.918  -1.675  0.00  0.00    -0.130 F 
ATOM      7  C   LIG    1       -2.025  -2.656   1.205  0.00  0.00    +0.090 A 
ATOM      8  F   LIG    1       -2.644  -1.914   2.149  0.00  0.00    -0.130 F 
ENDROOT
BRANCH   1   9
ATOM      9  C   LIG    1       -1.433  -0.534   0.013  0.00  0.00    +0.040 C 
BRANCH   9  11
ATOM     10  C   LIG    1       -0.019   1.526   0.010  0.00  0.00    +0.020 C 
ATOM     11  C   LIG    1        0.002  -0.004   0.002  0.00  0.00    +0.010 C 
ENDBRANCH   9  11
BRANCH   9  12
ATOM     12  C   LIG    1       -2.135  -0.131  -1.286  0.00  0.00    +0.020 C 
ATOM     13  C   LIG    1       -3.605  -0.552  -1.222  0.00  0.00    +0.010 C 
ENDBRANCH   9  12
ENDBRANCH   1   9
TORSDOF 3
ENDMDL
MODEL        7
REMARK  Name = ZINC000001726216
REMARK                            x       y       z     vdW  Elec       q    Type
REMARK                         _______ _______ _______ _____ _____    ______ ____
ROOT
ATOM      1  C   LIG    1        0.731  -0.503   1.223  0.00  0.00    -0.060 A 
ATOM      2  C   LIG    1        0.045  -1.242   2.202  0.00  0.00    -0.050 A 
ATOM      3  C   LIG    1       -1.323  -1.534   2.071  0.00  0.00    +0.020 A 
ATOM      4  C   LIG    1       -1.954  -2.253   3.039  0.00  0.00    +0.000 A 
ATOM      5  C   LIG    1       -1.264  -2.706   4.162  0.00  0.00    +0.000 A 
ATOM      6  C   LIG    1        0.062  -2.442   4.322  0.00  0.00    +0.020 A 
ATOM      7  C   LIG    1        0.748  -1.703   3.343  0.00  0.00    -0.050 A 
ATOM      8  C   LIG    1        2.116  -1.412   3.474  0.00  0.00    +0.020 A 
ATOM      9  C   LIG    1        2.748  -0.694   2.505  0.00  0.00    +0.010 A 
ATOM     10  C   LIG    1        2.058  -0.245   1.381  0.00  0.00    +0.000 A 
ENDROOT
BRANCH   1  12
ATOM     11  C   LIG    1       -0.023   1.526   0.013  0.00  0.00    +0.040 C 
ATOM     12  C   LIG    1        0.002  -0.004   0.002  0.00  0.00    +0.020 C 
ATOM     13  C   LIG    1        0.721  -0.493  -1.257  0.00  0.00    +0.030 C 
ENDBRANCH   1  12
TORSDOF 1
ENDMDL
MODEL        8
REMARK  Name = ZINC000005417428
REMARK                            x       y       z     vdW  Elec       q    Type
REMARK                         _______ _______ _______ _____ _____    ______ ____
ROOT
ATOM      1  C   LIG    1       -2.677  -2.794   0.013  0.00  0.00    -0.180 A 
ATOM      2  C   LIG    1       -3.900  -2.115   0.022  0.00  0.00    +0.060 A 
ATOM      3  C   LIG    1       -5.080  -2.827   0.030  0.00  0.00    +0.000 A 
ATOM      4  C   LIG    1       -5.057  -4.211   0.028  0.00  0.00    -0.040 A 
ATOM      5  C   LIG    1       -3.851  -4.891   0.019  0.00  0.00    +0.000 A 
ATOM      6  C   LIG    1       -2.662  -4.192   0.005  0.00  0.00    +0.070 A 
ENDROOT
BRANCH   4   7
ATOM      7  C   LIG    1       -6.352  -4.982   0.036  0.00  0.00    +0.020 C 
ATOM      8  C   LIG    1       -6.412  -5.864   1.285  0.00  0.00    +0.030 C 
ATOM      9  C   LIG    1       -6.429  -5.862  -1.213  0.00  0.00    +0.030 C 
ENDBRANCH   4   7
BRANCH   1  10
ATOM     10  C   LIG    1       -1.413  -2.041   0.005  0.00  0.00    +0.400 C 
ATOM     11  O   LIG    1       -0.355  -2.632  -0.009  0.00  0.00    -0.450 OA
BRANCH  10  12
ATOM     12  C   LIG    1       -1.433  -0.534   0.013  0.00  0.00    +0.030 C 
BRANCH  12  14
ATOM     13  C   LIG    1       -0.019   1.526   0.010  0.00  0.00    +0.030 C 
ATOM     14  C   LIG    1        0.002  -0.004   0.002  0.00  0.00    +0.020 C 
ENDBRANCH  12  14
ENDBRANCH  10  12
ENDBRANCH   1  10
TORSDOF 4
ENDMDL
MODEL        9
REMARK  Name = ZINC000001808775
REMARK                            x       y       z     vdW  Elec       q    Type
REMARK                         _______ _______ _______ _____ _____    ______ ____
ROOT
ATOM      1  C   LIG    1       -4.577   0.383  -1.070  0.00  0.00    -0.130 C 
ATOM      2  C   LIG    1       -4.775   1.413  -1.855  0.00  0.00    -0.050 C 
ATOM      3  C   LIG    1       -5.674  -0.085  -0.149  0.00  0.00    +0.070 C 
ENDROOT
BRANCH   1   4
ATOM      4  C   LIG    1       -3.252  -0.336  -1.089  0.00  0.00    +0.060 C 
BRANCH   4   5
ATOM      5  C   LIG    1       -2.356   0.218   0.020  0.00  0.00    +0.050 C 
BRANCH   5   8
ATOM      6  C   LIG    1        0.040   1.687  -0.182  0.00  0.00    +0.080 C 
ATOM      7  C   LIG    1        0.083   0.183  -0.093  0.00  0.00    -0.130 C 
ATOM      8  C   LIG    1       -1.031  -0.500   0.001  0.00  0.00    -0.060 C 
ATOM      9  C   LIG    1        1.407  -0.535  -0.112  0.00  0.00    +0.070 C 
ENDBRANCH   5   8
ENDBRANCH   4   5
ENDBRANCH   1   4
BRANCH   2  10
ATOM     10  C   LIG    1       -6.051   2.206  -1.749  0.00  0.00    +0.060 C 
BRANCH  10  11
ATOM     11  C   LIG    1       -5.717   3.683  -1.529  0.00  0.00    +0.030 C 
BRANCH  11  12
ATOM     12  C   LIG    1       -7.014   4.489  -1.422  0.00  0.00    +0.150 C 
ATOM     13  C   LIG    1       -6.684   5.943  -1.079  0.00  0.00    +0.000 C 
BRANCH  12  14
ATOM     14  O   LIG    1       -7.709   4.440  -2.669  0.00  0.00    -0.570 OA
ATOM     15  H   LIG    1       -8.543   4.931  -2.675  0.00  0.00    +0.380 HD
ENDBRANCH  12  14
ENDBRANCH  11  12
ENDBRANCH  10  11
ENDBRANCH   2  10
TORSDOF 7
ENDMDL
MODEL       10
REMARK  Name = ZINC000001808772
REMARK                            x       y       z     vdW  Elec       q    Type
REMARK                         _______ _______ _______ _____ _____    ______ ____
ROOT
ATOM      1  C   LIG    1       -4.577   0.383  -1.070  0.00  0.00    -0.130 C 
ATOM      2  C   LIG    1       -4.775   1.413  -1.855  0.00  0.00    -0.060 C 
ATOM      3  C   LIG    1       -5.674  -0.085  -0.149  0.00  0.00    +0.070 C 
ENDROOT
BRANCH   1   4
ATOM      4  C   LIG    1       -3.252  -0.336  -1.089  0.00  0.00    +0.060 C 
BRANCH   4   5
ATOM      5  C   LIG    1       -2.356   0.218   0.020  0.00  0.00    +0.050 C 
BRANCH   5   8
ATOM      6  C   LIG    1        0.040   1.687  -0.182  0.00  0.00    +0.080 C 
ATOM      7  C   LIG    1        0.083   0.183  -0.093  0.00  0.00    -0.130 C 
ATOM      8  C   LIG    1       -1.031  -0.500   0.001  0.00  0.00    -0.060 C 
ATOM      9  C   LIG    1        1.408  -0.535  -0.112  0.00  0.00    +0.070 C 
ENDBRANCH   5   8
ENDBRANCH   4   5
ENDBRANCH   1   4
BRANCH   2  10
ATOM     10  C   LIG    1       -6.052   2.206  -1.749  0.00  0.00    +0.060 C 
BRANCH  10  11
ATOM     11  C   LIG    1       -5.718   3.683  -1.529  0.00  0.00    +0.030 C 
BRANCH  11  12
ATOM     12  C   LIG    1       -7.014   4.489  -1.422  0.00  0.00    +0.150 C 
ATOM     13  C   LIG    1       -6.682   5.979  -1.327  0.00  0.00    +0.000 C 
BRANCH  12  14
ATOM     14  O   LIG    1       -7.730   4.085  -0.253  0.00  0.00    -0.570 OA
ATOM     15  H   LIG    1       -8.565   4.555  -0.121  0.00  0.00    +0.380 HD
ENDBRANCH  12  14
ENDBRANCH  11  12
ENDBRANCH  10  11
ENDBRANCH   2  10
TORSDOF 7
ENDMDL
MODEL       11
REMARK  Name = ZINC000001813957
REMARK                            x       y       z     vdW  Elec       q    Type
REMARK                         _______ _______ _______ _____ _____    ______ ____
ROOT
ATOM      1  N   LIG    1       -4.202  -4.630   0.017  0.00  0.00    -0.750 N 
ATOM      2  H   LIG    1       -4.947  -4.010   0.028  0.00  0.00    +0.400 HD
ENDROOT
BRANCH   1   3
ATOM      3  C   LIG    1       -4.438  -6.006   0.012  0.00  0.00    +0.210 A 
ATOM      4  C   LIG    1       -3.371  -6.896   0.003  0.00  0.00    -0.080 A 
ATOM      5  C   LIG    1       -3.609  -8.257  -0.002  0.00  0.00    +0.050 A 
ATOM      6  C   LIG    1       -4.907  -8.734   0.003  0.00  0.00    -0.060 A 
ATOM      7  C   LIG    1       -5.971  -7.851   0.012  0.00  0.00    +0.050 A 
ATOM      8  C   LIG    1       -5.741  -6.489   0.022  0.00  0.00    -0.080 A 
ENDBRANCH   1   3
BRANCH   1   9
ATOM      9  C   LIG    1       -2.827  -4.123   0.007  0.00  0.00    +0.240 C 
BRANCH   9  10
ATOM     10  C   LIG    1       -2.848  -2.593   0.015  0.00  0.00    +0.010 C 
BRANCH  10  11
ATOM     11  C   LIG    1       -1.413  -2.063   0.004  0.00  0.00    +0.020 C 
BRANCH  11  12
ATOM     12  C   LIG    1       -1.433  -0.534   0.013  0.00  0.00    +0.000 C 
BRANCH  12  14
ATOM     13  C   LIG    1       -0.019   1.526   0.010  0.00  0.00    +0.000 C 
ATOM     14  C   LIG    1        0.002  -0.004   0.002  0.00  0.00    -0.010 C 
ENDBRANCH  12  14
ENDBRANCH  11  12
ENDBRANCH  10  11
ENDBRANCH   9  10
ENDBRANCH   1   9
TORSDOF 6
ENDMDL
MODEL       12
REMARK  Name = ZINC000001851015
REMARK                            x       y       z     vdW  Elec       q    Type
REMARK                         _______ _______ _______ _____ _____    ______ ____
ROOT
ATOM      1  C   LIG    1       -2.711  -2.805  -0.135  0.00  0.00    +0.030 C 
ENDROOT
BRANCH   1   2
ATOM      2  C   LIG    1       -1.416  -2.035  -0.119  0.00  0.00    +0.350 C 
ATOM      3  O   LIG    1       -0.364  -2.620  -0.212  0.00  0.00    -0.440 OA
BRANCH   2   4
ATOM      4  C   LIG    1       -1.433  -0.534   0.013  0.00  0.00    +0.030 C 
BRANCH   4   6
ATOM      5  C   LIG    1       -0.019   1.526   0.010  0.00  0.00    +0.020 C 
ATOM      6  C   LIG    1        0.002  -0.004   0.002  0.00  0.00    -0.020 C 
ATOM      7  C   LIG    1        0.742  -0.511   1.242  0.00  0.00    +0.020 C 
ENDBRANCH   4   6
ENDBRANCH   2   4
ENDBRANCH   1   2
BRANCH   1   8
ATOM      8  C   LIG    1       -2.414  -4.299  -0.278  0.00  0.00    -0.010 C 
ATOM      9  C   LIG    1       -1.666  -4.791   0.963  0.00  0.00    +0.030 C 
BRANCH   8  10
ATOM     10  C   LIG    1       -3.729  -5.069  -0.419  0.00  0.00    +0.010 C 
BRANCH  10  11
ATOM     11  C   LIG    1       -3.429  -6.545  -0.686  0.00  0.00    -0.030 C 
ATOM     12  C   LIG    1       -2.730  -6.687  -2.039  0.00  0.00    +0.010 C 
ATOM     13  C   LIG    1       -4.739  -7.336  -0.703  0.00  0.00    +0.000 C 
ENDBRANCH  10  11
ENDBRANCH   8  10
ENDBRANCH   1   8
TORSDOF 6
ENDMDL
MODEL       13
REMARK  Name = ZINC000002014547
REMARK                            x       y       z     vdW  Elec       q    Type
REMARK                         _______ _______ _______ _____ _____    ______ ____
ROOT
ATOM      1  C   LIG    1       -1.442  -0.450   0.040  0.00  0.00    -0.150 A 
ATOM      2  C   LIG    1       -2.295  -0.259   1.109  0.00  0.00    +0.050 A 
ATOM      3  C   LIG    1       -3.562  -0.813   1.093  0.00  0.00    -0.050 A 
ATOM      4  C   LIG    1       -3.979  -1.560   0.006  0.00  0.00    +0.050 A 
ATOM      5  C   LIG    1       -3.131  -1.755  -1.066  0.00  0.00    -0.150 A 
ATOM      6  C   LIG    1       -1.860  -1.195  -1.055  0.00  0.00    +0.220 A 
ENDROOT
BRANCH   1   8
ATOM      7  C   LIG    1       -0.172   1.680   0.057  0.00  0.00    +0.030 C 
ATOM      8  C   LIG    1       -0.062   0.154   0.060  0.00  0.00    +0.020 C 
ATOM      9  C   LIG    1        0.677  -0.302   1.320  0.00  0.00    +0.030 C 
ENDBRANCH   1   8
BRANCH   5  10
ATOM     10  C   LIG    1       -3.587  -2.569  -2.250  0.00  0.00    +0.020 C 
ATOM     11  C   LIG    1       -4.733  -1.844  -2.957  0.00  0.00    +0.030 C 
ATOM     12  C   LIG    1       -4.068  -3.940  -1.770  0.00  0.00    +0.030 C 
ENDBRANCH   5  10
BRANCH   6  13
ATOM     13  N   LIG    1       -1.000  -1.390  -2.138  0.00  0.00    -0.880 N 
ATOM     14  H   LIG    1       -0.079  -1.089  -2.087  0.00  0.00    +0.400 HD
ATOM     15  H   LIG    1       -1.323  -1.827  -2.942  0.00  0.00    +0.400 HD
ENDBRANCH   6  13
TORSDOF 3
ENDMDL
MODEL       14
REMARK  Name = ZINC000001995239
REMARK                            x       y       z     vdW  Elec       q    Type
REMARK                         _______ _______ _______ _____ _____    ______ ____
ROOT
ATOM      1  C   LIG    1       -4.241  -4.644   0.018  0.00  0.00    +0.390 C 
ATOM      2  O   LIG    1       -5.173  -3.869   0.031  0.00  0.00    -0.450 OA
ENDROOT
BRANCH   1   3
ATOM      3  C   LIG    1       -4.490  -6.095   0.012  0.00  0.00    -0.170 A 
ATOM      4  C   LIG    1       -3.418  -6.992   0.003  0.00  0.00    +0.060 A 
ATOM      5  C   LIG    1       -3.659  -8.350  -0.002  0.00  0.00    +0.000 A 
ATOM      6  C   LIG    1       -4.959  -8.825   0.002  0.00  0.00    +0.040 A 
ATOM      7  C   LIG    1       -6.026  -7.943   0.011  0.00  0.00    +0.000 A 
ATOM      8  C   LIG    1       -5.801  -6.583   0.022  0.00  0.00    +0.070 A 
ENDBRANCH   1   3
BRANCH   1   9
ATOM      9  C   LIG    1       -2.827  -4.123   0.007  0.00  0.00    +0.030 C 
BRANCH   9  10
ATOM     10  C   LIG    1       -2.848  -2.593   0.015  0.00  0.00    +0.030 C 
BRANCH  10  11
ATOM     11  C   LIG    1       -1.413  -2.063   0.004  0.00  0.00    +0.000 C 
BRANCH  11  12
ATOM     12  C   LIG    1       -1.433  -0.534   0.013  0.00  0.00    +0.000 C 
BRANCH  12  14
ATOM     13  C   LIG    1       -0.019   1.526   0.010  0.00  0.00    +0.000 C 
ATOM     14  C   LIG    1        0.002  -0.004   0.002  0.00  0.00    -0.010 C 
ENDBRANCH  12  14
ENDBRANCH  11  12
ENDBRANCH  10  11
ENDBRANCH   9  10
ENDBRANCH   1   9
TORSDOF 6
ENDMDL
MODEL       15
REMARK  Name = ZINC000002029638
REMARK                            x       y       z     vdW  Elec       q    Type
REMARK                         _______ _______ _______ _____ _____    ______ ____
ROOT
ATOM      1  C   LIG    1       -1.412  -0.526   0.013  0.00  0.00    -0.050 A 
ATOM      2  C   LIG    1       -2.259  -0.204   1.056  0.00  0.00    +0.020 A 
ATOM      3  C   LIG    1       -3.556  -0.683   1.066  0.00  0.00    +0.030 A 
ATOM      4  C   LIG    1       -4.006  -1.482   0.032  0.00  0.00    +0.010 A 
ATOM      5  C   LIG    1       -3.159  -1.804  -1.012  0.00  0.00    +0.040 A 
ATOM      6  C   LIG    1       -1.863  -1.322  -1.025  0.00  0.00    -0.090 A 
ATOM      7 BR   LIG    1       -0.705  -1.762  -2.453  0.00  0.00    -0.050 Br
ENDROOT
BRANCH   1   9
ATOM      8  C   LIG    1       -0.019   1.526   0.010  0.00  0.00    +0.040 C 
ATOM      9  C   LIG    1        0.002  -0.004   0.002  0.00  0.00    +0.020 C 
ATOM     10  C   LIG    1        0.742  -0.511   1.242  0.00  0.00    +0.040 C 
ENDBRANCH   1   9
TORSDOF 1
ENDMDL
MODEL       16
REMARK  Name = ZINC000002037865
REMARK                            x       y       z     vdW  Elec       q    Type
REMARK                         _______ _______ _______ _____ _____    ______ ____
ROOT
ATOM      1  C   LIG    1        3.711  -0.707  -0.037  0.00  0.00    +0.060 C 
ENDROOT
BRANCH   1   5
ATOM      2  C   LIG    1       -0.017   1.378   0.010  0.00  0.00    -0.010 A 
ATOM      3  C   LIG    1        1.171   2.086   0.002  0.00  0.00    +0.000 A 
ATOM      4  C   LIG    1        2.377   1.411  -0.013  0.00  0.00    +0.000 A 
ATOM      5  C   LIG    1        2.396   0.029  -0.020  0.00  0.00    -0.080 A 
ATOM      6  C   LIG    1        1.208  -0.679  -0.011  0.00  0.00    +0.000 A 
ATOM      7  C   LIG    1        0.002  -0.004   0.002  0.00  0.00    +0.000 A 
ENDBRANCH   1   5
BRANCH   1   8
ATOM      8  C   LIG    1        4.171  -0.963   1.400  0.00  0.00    -0.010 C 
ATOM      9  C   LIG    1        3.186  -1.910   2.089  0.00  0.00    +0.010 C 
ATOM     10  C   LIG    1        3.646  -2.166   3.526  0.00  0.00    +0.000 C 
ATOM     11  C   LIG    1        5.038  -2.801   3.510  0.00  0.00    +0.000 C 
ATOM     12  C   LIG    1        6.022  -1.854   2.821  0.00  0.00    +0.000 C 
ATOM     13  C   LIG    1        5.563  -1.598   1.384  0.00  0.00    +0.000 C 
ENDBRANCH   1   8
TORSDOF 2
ENDMDL
MODEL       17
REMARK  Name = ZINC000002040174
REMARK                            x       y       z     vdW  Elec       q    Type
REMARK                         _______ _______ _______ _____ _____    ______ ____
ROOT
ATOM      1  C   LIG    1        1.523  -4.054   2.464  0.00  0.00    +0.350 C 
ATOM      2  O   LIG    1        1.000  -4.660   1.560  0.00  0.00    -0.450 OA
ENDROOT
BRANCH   1   3
ATOM      3  C   LIG    1        1.503  -2.548   2.473  0.00  0.00    +0.030 C 
BRANCH   3   4
ATOM      4  C   LIG    1        0.763  -2.041   1.233  0.00  0.00    +0.030 C 
BRANCH   4   5
ATOM      5  C   LIG    1        0.742  -0.511   1.242  0.00  0.00    +0.000 C 
BRANCH   5   7
ATOM      6  C   LIG    1       -0.019   1.526   0.010  0.00  0.00    +0.000 C 
ATOM      7  C   LIG    1        0.002  -0.004   0.002  0.00  0.00    -0.010 C 
ENDBRANCH   5   7
ENDBRANCH   4   5
ENDBRANCH   3   4
ENDBRANCH   1   3
BRANCH   1   8
ATOM      8  C   LIG    1        2.197  -4.805   3.584  0.00  0.00    +0.030 C 
BRANCH   8   9
ATOM      9  C   LIG    1        2.075  -6.310   3.335  0.00  0.00    +0.030 C 
BRANCH   9  10
ATOM     10  C   LIG    1        2.759  -7.072   4.472  0.00  0.00    +0.000 C 
BRANCH  10  11
ATOM     11  C   LIG    1        2.637  -8.576   4.223  0.00  0.00    -0.010 C 
ATOM     12  C   LIG    1        3.321  -9.338   5.360  0.00  0.00    +0.000 C 
ENDBRANCH  10  11
ENDBRANCH   9  10
ENDBRANCH   8   9
ENDBRANCH   1   8
TORSDOF 8
ENDMDL
MODEL       18
REMARK  Name = ZINC000002041162
REMARK                            x       y       z     vdW  Elec       q    Type
REMARK                         _______ _______ _______ _____ _____    ______ ____
ROOT
ATOM      1  C   LIG    1       -1.412  -0.526   0.013  0.00  0.00    -0.070 A 
ATOM      2  C   LIG    1       -2.259  -0.204   1.056  0.00  0.00    +0.000 A 
ATOM      3  C   LIG    1       -3.556  -0.683   1.066  0.00  0.00    +0.000 A 
ATOM      4  C   LIG    1       -4.006  -1.482   0.032  0.00  0.00    +0.000 A 
ATOM      5  C   LIG    1       -3.159  -1.803  -1.012  0.00  0.00    -0.070 A 
ATOM      6  C   LIG    1       -1.863  -1.321  -1.024  0.00  0.00    +0.000 A 
ENDROOT
BRANCH   1   8
ATOM      7  C   LIG    1       -0.019   1.526   0.010  0.00  0.00    +0.040 C 
ATOM      8  C   LIG    1        0.002  -0.004   0.002  0.00  0.00    +0.020 C 
ATOM      9  C   LIG    1        0.742  -0.511   1.242  0.00  0.00    +0.040 C 
ENDBRANCH   1   8
BRANCH   5  10
ATOM     10  C   LIG    1       -3.648  -2.675  -2.139  0.00  0.00    +0.020 C 
ATOM     11  C   LIG    1       -4.840  -2.002  -2.823  0.00  0.00    +0.040 C 
ATOM     12  C   LIG    1       -4.080  -4.033  -1.583  0.00  0.00    +0.040 C 
ENDBRANCH   5  10
TORSDOF 2
ENDMDL
MODEL       19
REMARK  Name = ZINC000002034691
REMARK                            x       y       z     vdW  Elec       q    Type
REMARK                         _______ _______ _______ _____ _____    ______ ____
ROOT
ATOM      1  C   LIG    1       -1.416  -0.515   0.007  0.00  0.00    -0.070 A 
ATOM      2  C   LIG    1       -2.231  -0.280   1.099  0.00  0.00    +0.010 A 
ATOM      3  C   LIG    1       -3.524  -0.770   1.114  0.00  0.00    +0.000 A 
ATOM      4  C   LIG    1       -4.001  -1.493   0.038  0.00  0.00    +0.000 A 
ATOM      5  C   LIG    1       -3.187  -1.727  -1.055  0.00  0.00    +0.010 A 
ATOM      6  C   LIG    1       -1.895  -1.234  -1.072  0.00  0.00    -0.070 A 
ENDROOT
BRANCH   1   8
ATOM      7  C   LIG    1       -0.041   1.548  -0.038  0.00  0.00    +0.040 C 
ATOM      8  C   LIG    1       -0.007   0.019  -0.009  0.00  0.00    +0.020 C 
ATOM      9  C   LIG    1        0.732  -0.451   1.246  0.00  0.00    +0.040 C 
ENDBRANCH   1   8
BRANCH   6  10
ATOM     10  C   LIG    1       -1.007  -1.489  -2.262  0.00  0.00    +0.020 C 
ATOM     11  C   LIG    1       -1.577  -0.770  -3.487  0.00  0.00    +0.040 C 
ATOM     12  C   LIG    1       -0.943  -2.992  -2.538  0.00  0.00    +0.040 C 
ENDBRANCH   6  10
TORSDOF 2
ENDMDL
MODEL       20
REMARK  Name = ZINC000002166902
REMARK                            x       y       z     vdW  Elec       q    Type
REMARK                         _______ _______ _______ _____ _____    ______ ____
ROOT
ATOM      1  C   LIG    1       -1.413  -2.041   0.005  0.00  0.00    -0.050 C 
ATOM      2  C   LIG    1       -2.046  -2.709   0.936  0.00  0.00    -0.050 C 
ENDROOT
BRANCH   1   3
ATOM      3  C   LIG    1       -1.433  -0.534   0.013  0.00  0.00    +0.040 C 
BRANCH   3   5
ATOM      4  C   LIG    1       -0.019   1.526   0.010  0.00  0.00    +0.000 C 
ATOM      5  C   LIG    1        0.002  -0.004   0.002  0.00  0.00    +0.000 C 
ENDBRANCH   3   5
ENDBRANCH   1   3
BRANCH   2   6
ATOM      6  C   LIG    1       -2.025  -4.216   0.928  0.00  0.00    +0.040 C 
BRANCH   6   7
ATOM      7  C   LIG    1       -1.512  -4.727   2.276  0.00  0.00    +0.000 C 
BRANCH   7   8
ATOM      8  C   LIG    1       -1.491  -6.256   2.268  0.00  0.00    -0.010 C 
ATOM      9  C   LIG    1       -0.978  -6.767   3.616  0.00  0.00    +0.000 C 
ENDBRANCH   7   8
ENDBRANCH   6   7
ENDBRANCH   2   6
TORSDOF 5
ENDMDL
MODEL       21
REMARK  Name = ZINC000002141025
REMARK                            x       y       z     vdW  Elec       q    Type
REMARK                         _______ _______ _______ _____ _____    ______ ____
ROOT
ATOM      1  C   LIG    1       -2.826  -2.585   0.015  0.00  0.00    +0.040 A 
ATOM      2  C   LIG    1       -3.555  -2.850  -1.078  0.00  0.00    -0.050 A 
ATOM      3  C   LIG    1       -4.855  -3.332  -0.597  0.00  0.00    -0.130 A 
ATOM      4  C   LIG    1       -6.026  -3.761  -1.219  0.00  0.00    +0.060 A 
ATOM      5  C   LIG    1       -7.098  -4.159  -0.451  0.00  0.00    -0.010 A 
ATOM      6  C   LIG    1       -7.014  -4.133   0.934  0.00  0.00    +0.050 A 
ATOM      7  C   LIG    1       -5.862  -3.710   1.561  0.00  0.00    +0.020 A 
ATOM      8  C   LIG    1       -4.769  -3.306   0.806  0.00  0.00    +0.050 A 
ATOM      9  O   LIG    1       -3.538  -2.858   1.123  0.00  0.00    -0.190 OA
ENDROOT
BRANCH   1  10
ATOM     10  C   LIG    1       -1.413  -2.063   0.004  0.00  0.00    +0.140 C 
BRANCH  10  11
ATOM     11  C   LIG    1       -1.433  -0.534   0.013  0.00  0.00    +0.020 C 
BRANCH  11  13
ATOM     12  C   LIG    1       -0.019   1.526   0.010  0.00  0.00    +0.010 C 
ATOM     13  C   LIG    1        0.002  -0.004   0.002  0.00  0.00    +0.000 C 
ENDBRANCH  11  13
ENDBRANCH  10  11
ENDBRANCH   1  10
TORSDOF 3
ENDMDL
MODEL       22
REMARK  Name = ZINC000002077791
REMARK                            x       y       z     vdW  Elec       q    Type
REMARK                         _______ _______ _______ _____ _____    ______ ____
ROOT
ATOM      1  C   LIG    1        2.252  -4.577   3.685  0.00  0.00    +0.360 C 
ATOM      2  O   LIG    1        2.708  -3.790   4.480  0.00  0.00    -0.450 OA
ENDROOT
BRANCH   1   3
ATOM      3  C   LIG    1        2.413  -6.058   3.914  0.00  0.00    -0.050 C 
ATOM      4  C   LIG    1        3.780  -6.545   3.374  0.00  0.00    +0.030 C 
ATOM      5  C   LIG    1        4.031  -7.835   4.194  0.00  0.00    +0.020 C 
ATOM      6  C   LIG    1        3.499  -7.497   5.603  0.00  0.00    +0.010 C 
ATOM      7  C   LIG    1        2.470  -6.367   5.424  0.00  0.00    +0.030 C 
ENDBRANCH   1   3
BRANCH   1   8
ATOM      8  C   LIG    1        1.524  -4.077   2.464  0.00  0.00    +0.030 C 
BRANCH   8   9
ATOM      9  C   LIG    1        1.503  -2.548   2.473  0.00  0.00    +0.030 C 
BRANCH   9  10
ATOM     10  C   LIG    1        0.763  -2.041   1.233  0.00  0.00    +0.000 C 
BRANCH  10  11
ATOM     11  C   LIG    1        0.742  -0.511   1.242  0.00  0.00    +0.000 C 
BRANCH  11  13
ATOM     12  C   LIG    1       -0.019   1.526   0.010  0.00  0.00    +0.000 C 
ATOM     13  C   LIG    1        0.002  -0.004   0.002  0.00  0.00    -0.010 C 
ENDBRANCH  11  13
ENDBRANCH  10  11
ENDBRANCH   9  10
ENDBRANCH   8   9
ENDBRANCH   1   8
TORSDOF 6
ENDMDL
MODEL       23
REMARK  Name = ZINC000002485889
REMARK                            x       y       z     vdW  Elec       q    Type
REMARK                         _______ _______ _______ _____ _____    ______ ____
ROOT
ATOM      1  C   LIG    1       -0.017   1.378   0.010  0.00  0.00    +0.000 A 
ATOM      2  C   LIG    1        1.171   2.086   0.002  0.00  0.00    +0.000 A 
ATOM      3  C   LIG    1        2.377   1.411  -0.013  0.00  0.00    +0.010 A 
ATOM      4  C   LIG    1        2.396   0.029  -0.020  0.00  0.00    -0.070 A 
ATOM      5  C   LIG    1        1.208  -0.679  -0.011  0.00  0.00    +0.030 A 
ATOM      6  C   LIG    1        0.002  -0.004   0.002  0.00  0.00    +0.000 A 
ENDROOT
BRANCH   4   7
ATOM      7  C   LIG    1        3.711  -0.707  -0.037  0.00  0.00    +0.080 C 
ATOM      8  C   LIG    1        3.791  -1.586  -1.288  0.00  0.00    +0.050 C 
ATOM      9  C   LIG    1        5.148  -2.281  -1.351  0.00  0.00    +0.000 C 
ATOM     10  C   LIG    1        5.255  -3.355  -0.272  0.00  0.00    +0.040 C 
ATOM     11  C   LIG    1        5.360  -2.701   1.108  0.00  0.00    +0.100 C 
ATOM     12  S   LIG    1        3.836  -1.765   1.436  0.00  0.00    -0.250 S 
ENDBRANCH   4   7
TORSDOF 1
ENDMDL
MODEL       24
REMARK  Name = ZINC000002510214
REMARK                            x       y       z     vdW  Elec       q    Type
REMARK                         _______ _______ _______ _____ _____    ______ ____
ROOT
ATOM      1  C   LIG    1        2.252  -4.577   3.685  0.00  0.00    +0.420 C 
ATOM      2  O   LIG    1        2.711  -3.785   4.484  0.00  0.00    -0.450 OA
ENDROOT
BRANCH   1   3
ATOM      3  C   LIG    1        2.402  -5.965   3.900  0.00  0.00    -0.310 A 
ATOM      4  C   LIG    1        3.038  -6.540   4.971  0.00  0.00    +0.110 A 
ATOM      5  C   LIG    1        3.037  -7.912   4.927  0.00  0.00    -0.010 A 
ATOM      6  C   LIG    1        2.425  -8.447   3.862  0.00  0.00    -0.050 A 
ATOM      7  S   LIG    1        1.798  -7.232   2.841  0.00  0.00    +0.230 S 
ENDBRANCH   1   3
BRANCH   1   8
ATOM      8  C   LIG    1        1.524  -4.077   2.464  0.00  0.00    +0.030 C 
BRANCH   8   9
ATOM      9  C   LIG    1        1.503  -2.548   2.473  0.00  0.00    +0.030 C 
BRANCH   9  10
ATOM     10  C   LIG    1        0.763  -2.041   1.233  0.00  0.00    +0.000 C 
BRANCH  10  11
ATOM     11  C   LIG    1        0.742  -0.511   1.242  0.00  0.00    +0.000 C 
BRANCH  11  13
ATOM     12  C   LIG    1       -0.019   1.526   0.010  0.00  0.00    +0.000 C 
ATOM     13  C   LIG    1        0.002  -0.004   0.002  0.00  0.00    -0.010 C 
ENDBRANCH  11  13
ENDBRANCH  10  11
ENDBRANCH   9  10
ENDBRANCH   8   9
ENDBRANCH   1   8
TORSDOF 6
ENDMDL
MODEL       25
REMARK  Name = ZINC000002510144
REMARK                            x       y       z     vdW  Elec       q    Type
REMARK                         _______ _______ _______ _____ _____    ______ ____
ROOT
ATOM      1  C   LIG    1        1.444  -2.513  -2.505  0.00  0.00    -0.080 A 
ATOM      2  C   LIG    1        0.726  -2.742  -3.664  0.00  0.00    +0.020 A 
ATOM      3  C   LIG    1        1.372  -3.187  -4.801  0.00  0.00    +0.020 A 
ATOM      4  C   LIG    1        2.739  -3.405  -4.780  0.00  0.00    -0.040 A 
ATOM      5  C   LIG    1        3.457  -3.176  -3.620  0.00  0.00    +0.020 A 
ATOM      6 CL   LIG    1        3.551  -3.964  -6.208  0.00  0.00    -0.070 Cl
ATOM      7  C   LIG    1        2.810  -2.725  -2.485  0.00  0.00    +0.020 A 
ENDROOT
BRANCH   1   8
ATOM      8  C   LIG    1        0.739  -2.027  -1.265  0.00  0.00    +0.060 C 
BRANCH   8   9
ATOM      9  C   LIG    1        0.718  -0.497  -1.257  0.00  0.00    +0.010 C 
BRANCH   9  11
ATOM     10  C   LIG    1       -0.019   1.526   0.010  0.00  0.00    +0.000 C 
ATOM     11  C   LIG    1        0.002  -0.004   0.002  0.00  0.00    -0.010 C 
ENDBRANCH   9  11
ENDBRANCH   8   9
ENDBRANCH   1   8
TORSDOF 3
ENDMDL
MODEL       26
REMARK  Name = ZINC000002514132
REMARK                            x       y       z     vdW  Elec       q    Type
REMARK                         _______ _______ _______ _____ _____    ______ ____
ROOT
ATOM      1  C   LIG    1       -0.493   1.455   0.078  0.00  0.00    +0.110 C 
ATOM      2  C   LIG    1       -0.226  -0.027   0.035  0.00  0.00    -0.020 A 
ATOM      3  C   LIG    1       -0.325  -0.713  -1.157  0.00  0.00    -0.010 A 
ATOM      4  C   LIG    1       -0.079  -2.075  -1.199  0.00  0.00    +0.050 A 
ATOM      5  C   LIG    1        0.266  -2.759  -0.046  0.00  0.00    -0.010 A 
ATOM      6  C   LIG    1        0.369  -2.087   1.153  0.00  0.00    +0.060 A 
ATOM      7  C   LIG    1        0.129  -0.710   1.203  0.00  0.00    -0.180 A 
ENDROOT
BRANCH   7   8
ATOM      8  C   LIG    1        0.237   0.014   2.479  0.00  0.00    +0.390 C 
ATOM      9  O   LIG    1        0.135   1.222   2.501  0.00  0.00    -0.440 OA
BRANCH   8  10
ATOM     10  C   LIG    1        0.475  -0.745   3.759  0.00  0.00    +0.040 C 
BRANCH  10  11
ATOM     11  C   LIG    1        0.547   0.238   4.929  0.00  0.00    -0.060 C 
ATOM     12  C   LIG    1        1.695   1.222   4.699  0.00  0.00    +0.030 C 
ATOM     13  C   LIG    1        0.789  -0.533   6.228  0.00  0.00    +0.020 C 
ATOM     14  C   LIG    1       -0.772   1.007   5.031  0.00  0.00    +0.030 C 
ENDBRANCH  10  11
ENDBRANCH   8  10
ENDBRANCH   7   8
TORSDOF 3
ENDMDL
MODEL       27
REMARK  Name = ZINC000002510289
REMARK                            x       y       z     vdW  Elec       q    Type
REMARK                         _______ _______ _______ _____ _____    ______ ____
ROOT
ATOM      1  C   LIG    1       -2.826  -2.585   0.015  0.00  0.00    -0.170 A 
ATOM      2  C   LIG    1       -3.556  -2.850  -1.069  0.00  0.00    +0.000 A 
ATOM      3  C   LIG    1       -4.832  -3.322  -0.813  0.00  0.00    +0.000 A 
ATOM      4  C   LIG    1       -5.138  -3.441   0.480  0.00  0.00    -0.180 A 
ATOM      5  S   LIG    1       -3.764  -2.944   1.459  0.00  0.00    +0.090 S 
ENDROOT
BRANCH   4   6
ATOM      6  C   LIG    1       -6.457  -3.931   1.020  0.00  0.00    +0.100 C 
ATOM      7  C   LIG    1       -6.403  -5.449   1.197  0.00  0.00    +0.030 C 
ENDBRANCH   4   6
BRANCH   1   8
ATOM      8  C   LIG    1       -1.413  -2.063   0.004  0.00  0.00    +0.100 C 
BRANCH   8   9
ATOM      9  C   LIG    1       -1.433  -0.534   0.013  0.00  0.00    +0.020 C 
BRANCH   9  11
ATOM     10  C   LIG    1       -0.019   1.526   0.010  0.00  0.00    +0.000 C 
ATOM     11  C   LIG    1        0.002  -0.004   0.002  0.00  0.00    -0.010 C 
ENDBRANCH   9  11
ENDBRANCH   8   9
ENDBRANCH   1   8
TORSDOF 4
ENDMDL
MODEL       28
REMARK  Name = ZINC000002530958
REMARK                            x       y       z     vdW  Elec       q    Type
REMARK                         _______ _______ _______ _____ _____    ______ ____
ROOT
ATOM      1  C   LIG    1       -1.187   3.497   0.027  0.00  0.00    +0.050 C 
ATOM      2  C   LIG    1       -1.921   4.004  -1.216  0.00  0.00    +0.030 C 
ATOM      3  C   LIG    1       -1.941   5.534  -1.208  0.00  0.00    +0.020 C 
ATOM      4  C   LIG    1       -2.663   6.027   0.047  0.00  0.00    +0.010 C 
ATOM      5  C   LIG    1       -1.929   5.520   1.290  0.00  0.00    +0.020 C 
ATOM      6  C   LIG    1       -1.909   3.990   1.282  0.00  0.00    +0.030 C 
ENDROOT
BRANCH   1   9
ATOM      7  F   LIG    1        0.002  -0.004   0.002  0.00  0.00    -0.120 F 
ATOM      8  C   LIG    1       -0.016   1.347   0.009  0.00  0.00    +0.170 C 
ATOM      9  C   LIG    1       -1.166   1.990   0.018  0.00  0.00    +0.020 C 
ATOM     10  F   LIG    1       -2.327   1.299   0.020  0.00  0.00    -0.110 F 
ATOM     11  F   LIG    1        1.144   2.038   0.002  0.00  0.00    -0.110 F 
ENDBRANCH   1   9
TORSDOF 1
ENDMDL
MODEL       29
REMARK  Name = ZINC000019912484
REMARK                            x       y       z     vdW  Elec       q    Type
REMARK                         _______ _______ _______ _____ _____    ______ ____
ROOT
ATOM      1  C   LIG    1       -2.613  -2.713   0.012  0.00  0.00    +0.210 A 
ATOM      2  C   LIG    1       -3.827  -2.037   0.022  0.00  0.00    -0.080 A 
ATOM      3  C   LIG    1       -5.011  -2.747   0.029  0.00  0.00    +0.050 A 
ATOM      4  C   LIG    1       -4.991  -4.129   0.027  0.00  0.00    -0.130 A 
ATOM      5  C   LIG    1       -3.785  -4.806   0.018  0.00  0.00    +0.050 A 
ATOM      6  C   LIG    1       -2.596  -4.102   0.005  0.00  0.00    -0.070 A 
ENDROOT
BRANCH   4   7
ATOM      7  C   LIG    1       -6.285  -4.900   0.035  0.00  0.00    +0.020 C 
ATOM      8  C   LIG    1       -6.346  -5.783   1.283  0.00  0.00    +0.020 C 
ATOM      9  C   LIG    1       -6.363  -5.779  -1.215  0.00  0.00    +0.020 C 
ENDBRANCH   4   7
BRANCH   1  10
ATOM     10  N   LIG    1       -1.413  -1.998   0.005  0.00  0.00    -0.750 N 
ATOM     11  H   LIG    1       -0.567  -2.472  -0.006  0.00  0.00    +0.400 HD
BRANCH  10  12
ATOM     12  C   LIG    1       -1.433  -0.534   0.013  0.00  0.00    +0.240 C 
BRANCH  12  14
ATOM     13  C   LIG    1       -0.019   1.526   0.010  0.00  0.00    +0.030 C 
ATOM     14  C   LIG    1        0.002  -0.004   0.002  0.00  0.00    +0.000 C 
ENDBRANCH  12  14
ENDBRANCH  10  12
ENDBRANCH   1  10
TORSDOF 4
ENDMDL
MODEL       30
REMARK  Name = ZINC000021515804
REMARK                            x       y       z     vdW  Elec       q    Type
REMARK                         _______ _______ _______ _____ _____    ______ ____
ROOT
ATOM      1  C   LIG    1        1.386  -2.671   2.271  0.00  0.00    +0.220 A 
ATOM      2  C   LIG    1        1.984  -1.976   3.315  0.00  0.00    -0.080 A 
ATOM      3  C   LIG    1        2.599  -2.667   4.340  0.00  0.00    +0.050 A 
ATOM      4  C   LIG    1        2.622  -4.050   4.328  0.00  0.00    -0.050 A 
ATOM      5  C   LIG    1        2.028  -4.745   3.290  0.00  0.00    -0.030 A 
ATOM      6  C   LIG    1        1.406  -4.061   2.265  0.00  0.00    -0.070 A 
ENDROOT
BRANCH   5   7
ATOM      7  C   LIG    1        2.055  -6.252   3.282  0.00  0.00    +0.020 C 
ATOM      8  C   LIG    1        1.351  -6.782   4.533  0.00  0.00    +0.040 C 
ATOM      9  C   LIG    1        3.507  -6.736   3.269  0.00  0.00    +0.040 C 
ENDBRANCH   5   7
BRANCH   1  10
ATOM     10  N   LIG    1        0.762  -1.976   1.234  0.00  0.00    -0.750 N 
ATOM     11  H   LIG    1        0.342  -2.462   0.507  0.00  0.00    +0.400 HD
BRANCH  10  12
ATOM     12  C   LIG    1        0.742  -0.511   1.242  0.00  0.00    +0.240 C 
BRANCH  12  14
ATOM     13  C   LIG    1       -0.019   1.526   0.010  0.00  0.00    +0.030 C 
ATOM     14  C   LIG    1        0.002  -0.004   0.002  0.00  0.00    +0.000 C 
ENDBRANCH  12  14
ENDBRANCH  10  12
ENDBRANCH   1  10
TORSDOF 4
ENDMDL
MODEL       31
REMARK  Name = ZINC000002565574
REMARK                            x       y       z     vdW  Elec       q    Type
REMARK                         _______ _______ _______ _____ _____    ______ ____
ROOT
ATOM      1  C   LIG    1       -2.287  -3.047   0.007  0.00  0.00    -0.110 C 
ATOM      2  C   LIG    1       -2.766  -3.441  -1.129  0.00  0.00    -0.120 C 
ATOM      3  C   LIG    1       -4.047  -4.208  -1.280  0.00  0.00    +0.060 C 
ATOM      4  C   LIG    1       -4.463  -4.810   0.063  0.00  0.00    +0.010 C 
ATOM      5  C   LIG    1       -4.405  -3.707   1.128  0.00  0.00    +0.020 C 
ATOM      6  C   LIG    1       -1.988  -3.110  -2.376  0.00  0.00    +0.070 C 
ATOM      7  C   LIG    1       -2.938  -3.315   1.333  0.00  0.00    -0.020 C 
ATOM      8  C   LIG    1       -2.867  -2.050   2.190  0.00  0.00    +0.030 C 
ATOM      9  C   LIG    1       -2.204  -4.451   2.048  0.00  0.00    +0.040 C 
ENDROOT
BRANCH   1  10
ATOM     10  C   LIG    1       -0.993  -2.276  -0.001  0.00  0.00    +0.070 C 
BRANCH  10  11
ATOM     11  C   LIG    1       -1.293  -0.775   0.010  0.00  0.00    +0.030 C 
BRANCH  11  13
ATOM     12  C   LIG    1       -0.018   1.503   0.010  0.00  0.00    +0.050 C 
ATOM     13  C   LIG    1        0.002  -0.004   0.002  0.00  0.00    +0.350 C 
ATOM     14  O   LIG    1        1.056  -0.594  -0.011  0.00  0.00    -0.460 OA
ENDBRANCH  11  13
ENDBRANCH  10  11
ENDBRANCH   1  10
TORSDOF 3
ENDMDL
MODEL       32
REMARK  Name = ZINC000005757860
REMARK                            x       y       z     vdW  Elec       q    Type
REMARK                         _______ _______ _______ _____ _____    ______ ____
ROOT
ATOM      1  C   LIG    1       -0.018   1.503   0.010  0.00  0.00    +0.170 C 
ATOM      2  C   LIG    1        0.002  -0.004   0.002  0.00  0.00    +0.170 C 
ATOM      3  N   LIG    1        0.008  -0.759  -1.039  0.00  0.00    -0.480 NA
ATOM      4  C   LIG    1        0.027  -2.097  -0.757  0.00  0.00    +0.060 A 
ATOM      5  C   LIG    1        0.038  -3.218  -1.593  0.00  0.00    +0.050 A 
ATOM      6  C   LIG    1        0.057  -4.485  -1.049  0.00  0.00    +0.020 A 
ATOM      7  C   LIG    1        0.065  -4.660   0.323  0.00  0.00    +0.010 A 
ATOM      8  C   LIG    1        0.055  -3.557   1.161  0.00  0.00    +0.040 A 
ATOM      9  C   LIG    1        0.036  -2.292   0.628  0.00  0.00    -0.120 A 
ATOM     10  C   LIG    1        0.026  -0.904   1.216  0.00  0.00    -0.040 C 
ATOM     11  C   LIG    1        1.286  -0.658   2.038  0.00  0.00    +0.050 C 
ATOM     12  C   LIG    1        1.302  -1.599   3.246  0.00  0.00    +0.010 C 
ATOM     13  C   LIG    1        0.057  -1.353   4.100  0.00  0.00    +0.000 C 
ATOM     14  C   LIG    1       -1.197  -1.628   3.268  0.00  0.00    +0.010 C 
ATOM     15  C   LIG    1       -1.224  -0.686   2.061  0.00  0.00    +0.050 C 
ENDROOT
TORSDOF 0
ENDMDL
MODEL       33
REMARK  Name = ZINC000005747656
REMARK                            x       y       z     vdW  Elec       q    Type
REMARK                         _______ _______ _______ _____ _____    ______ ____
ROOT
ATOM      1  C   LIG    1       -0.018   1.503   0.010  0.00  0.00    +0.090 C 
ATOM      2  C   LIG    1        0.002  -0.004   0.002  0.00  0.00    -0.050 A 
ATOM      3  C   LIG    1        0.006  -0.681  -1.198  0.00  0.00    -0.030 A 
ATOM      4  C   LIG    1        0.024  -2.072  -1.214  0.00  0.00    +0.140 A 
ATOM      5  C   LIG    1        0.039  -2.773   0.001  0.00  0.00    -0.110 A 
ATOM      6  C   LIG    1        0.056  -4.206  -0.343  0.00  0.00    -0.110 A 
ATOM      7  C   LIG    1        0.050  -4.280  -1.743  0.00  0.00    +0.140 A 
ATOM      8  C   LIG    1        0.063  -5.527  -2.361  0.00  0.00    -0.030 A 
ATOM      9  C   LIG    1        0.082  -6.674  -1.598  0.00  0.00    -0.050 A 
ATOM     10  C   LIG    1        0.088  -6.600  -0.213  0.00  0.00    -0.020 A 
ATOM     11  C   LIG    1        0.096  -8.021  -2.274  0.00  0.00    +0.090 C 
ATOM     12  C   LIG    1        0.075  -5.374   0.417  0.00  0.00    +0.070 A 
ATOM     13  C   LIG    1        0.036  -2.076   1.208  0.00  0.00    +0.070 A 
ATOM     14  N   LIG    1        0.031  -2.992  -2.248  0.00  0.00    -0.620 N 
ATOM     15  H   LIG    1        0.022  -2.765  -3.191  0.00  0.00    +0.420 HD
ATOM     16  C   LIG    1        0.023  -0.698   1.202  0.00  0.00    -0.020 A 
ENDROOT
TORSDOF 0
ENDMDL
MODEL       34
REMARK  Name = ZINC000019907298
REMARK                            x       y       z     vdW  Elec       q    Type
REMARK                         _______ _______ _______ _____ _____    ______ ____
ROOT
ATOM      1  C   LIG    1        1.341  -2.647  -2.322  0.00  0.00    +0.220 A 
ATOM      2  C   LIG    1        1.837  -1.945  -3.414  0.00  0.00    -0.080 A 
ATOM      3  C   LIG    1        2.435  -2.625  -4.457  0.00  0.00    +0.040 A 
ATOM      4  C   LIG    1        2.541  -4.003  -4.415  0.00  0.00    -0.060 A 
ATOM      5  C   LIG    1        2.049  -4.705  -3.330  0.00  0.00    +0.050 A 
ATOM      6  C   LIG    1        1.454  -4.031  -2.282  0.00  0.00    -0.150 A 
ENDROOT
BRANCH   6   7
ATOM      7  C   LIG    1        0.918  -4.797  -1.100  0.00  0.00    +0.020 C 
ATOM      8  C   LIG    1        2.075  -5.479  -0.366  0.00  0.00    +0.030 C 
ATOM      9  C   LIG    1       -0.073  -5.857  -1.586  0.00  0.00    +0.030 C 
ENDBRANCH   6   7
BRANCH   1  10
ATOM     10  N   LIG    1        0.736  -1.962  -1.266  0.00  0.00    -0.750 N 
ATOM     11  H   LIG    1        0.320  -2.457  -0.543  0.00  0.00    +0.400 HD
BRANCH  10  12
ATOM     12  C   LIG    1        0.730  -0.498  -1.250  0.00  0.00    +0.240 C 
BRANCH  12  14
ATOM     13  C   LIG    1        0.003   1.526   0.023  0.00  0.00    +0.030 C 
ATOM     14  C   LIG    1        0.009  -0.004   0.006  0.00  0.00    +0.000 C 
ENDBRANCH  12  14
ENDBRANCH  10  12
ENDBRANCH   1  10
TORSDOF 4
ENDMDL
MODEL       35
REMARK  Name = ZINC000005761548
REMARK                            x       y       z     vdW  Elec       q    Type
REMARK                         _______ _______ _______ _____ _____    ______ ____
ROOT
ATOM      1  C   LIG    1       -1.412  -0.526   0.013  0.00  0.00    -0.060 A 
ATOM      2  C   LIG    1       -2.258  -0.204   1.056  0.00  0.00    -0.020 A 
ATOM      3  C   LIG    1       -3.560  -0.684   1.065  0.00  0.00    +0.110 A 
ATOM      4  C   LIG    1       -4.008  -1.486   0.026  0.00  0.00    -0.020 A 
ATOM      5  C   LIG    1       -3.158  -1.805  -1.015  0.00  0.00    -0.060 A 
ATOM      6  C   LIG    1       -1.862  -1.321  -1.025  0.00  0.00    -0.010 A 
ENDROOT
BRANCH   1   8
ATOM      7  C   LIG    1       -0.019   1.526   0.010  0.00  0.00    +0.030 C 
ATOM      8  C   LIG    1        0.002  -0.004   0.002  0.00  0.00    +0.020 C 
ATOM      9  C   LIG    1        0.742  -0.511   1.242  0.00  0.00    +0.030 C 
ENDBRANCH   1   8
BRANCH   5  10
ATOM     10  C   LIG    1       -3.644  -2.676  -2.145  0.00  0.00    +0.020 C 
ATOM     11  C   LIG    1       -4.834  -2.003  -2.832  0.00  0.00    +0.030 C 
ATOM     12  C   LIG    1       -4.077  -4.035  -1.591  0.00  0.00    +0.030 C 
ENDBRANCH   5  10
BRANCH   3  13
ATOM     13  O   LIG    1       -4.394  -0.369   2.090  0.00  0.00    -0.500 OA
ATOM     14  H   LIG    1       -4.904   0.441   1.948  0.00  0.00    +0.390 HD
ENDBRANCH   3  13
TORSDOF 3
ENDMDL
MODEL       36
REMARK  Name = ZINC000005764795
REMARK                            x       y       z     vdW  Elec       q    Type
REMARK                         _______ _______ _______ _____ _____    ______ ____
ROOT
ATOM      1  C   LIG    1        1.526  -4.051   2.400  0.00  0.00    -0.010 C 
ATOM      2  C   LIG    1        2.680  -4.702   2.450  0.00  0.00    +0.000 C 
ENDROOT
BRANCH   2   3
ATOM      3  C   LIG    1        3.949  -3.950   2.553  0.00  0.00    -0.110 A 
ATOM      4  C   LIG    1        4.032  -2.802   3.349  0.00  0.00    +0.070 A 
ATOM      5  C   LIG    1        5.244  -2.135   3.412  0.00  0.00    -0.030 A 
ATOM      6  C   LIG    1        6.322  -2.619   2.694  0.00  0.00    +0.260 A 
ATOM      7  N   LIG    1        6.213  -3.704   1.952  0.00  0.00    -0.480 NA
ATOM      8  C   LIG    1        5.085  -4.377   1.864  0.00  0.00    +0.270 A 
ENDBRANCH   2   3
BRANCH   1   9
ATOM      9  C   LIG    1        1.513  -2.549   2.275  0.00  0.00    +0.040 C 
BRANCH   9  10
ATOM     10  C   LIG    1        0.625  -2.143   1.097  0.00  0.00    +0.000 C 
BRANCH  10  11
ATOM     11  C   LIG    1        0.611  -0.619   0.970  0.00  0.00    +0.000 C 
BRANCH  11  13
ATOM     12  C   LIG    1       -0.291   1.312  -0.334  0.00  0.00    +0.000 C 
ATOM     13  C   LIG    1       -0.277  -0.213  -0.207  0.00  0.00    -0.010 C 
ENDBRANCH  11  13
ENDBRANCH  10  11
ENDBRANCH   9  10
ENDBRANCH   1   9
TORSDOF 5
ENDMDL
MODEL       37
REMARK  Name = ZINC000000259265
REMARK                            x       y       z     vdW  Elec       q    Type
REMARK                         _______ _______ _______ _____ _____    ______ ____
ROOT
ATOM      1  C   LIG    1       -0.018   1.503   0.010  0.00  0.00    +0.160 C 
ATOM      2  C   LIG    1        0.002  -0.004   0.002  0.00  0.00    +0.150 A 
ATOM      3  N   LIG    1        0.006  -0.653  -1.112  0.00  0.00    -0.450 NA
ATOM      4  S   LIG    1        0.030  -2.312  -0.760  0.00  0.00    +0.220 S 
ATOM      5  C   LIG    1        0.035  -2.109   0.994  0.00  0.00    -0.120 A 
ATOM      6  C   LIG    1        0.052  -3.009   2.077  0.00  0.00    -0.020 A 
ATOM      7  C   LIG    1        0.061  -4.396   1.879  0.00  0.00    +0.030 A 
ATOM      8  C   LIG    1        0.073  -5.234   2.954  0.00  0.00    +0.020 A 
ATOM      9  C   LIG    1        0.074  -4.731   4.251  0.00  0.00    +0.030 A 
ATOM     10  C   LIG    1        0.063  -3.387   4.480  0.00  0.00    +0.020 A 
ATOM     11  C   LIG    1        0.050  -2.497   3.397  0.00  0.00    -0.020 A 
ATOM     12  C   LIG    1        0.037  -1.100   3.597  0.00  0.00    +0.030 A 
ATOM     13  C   LIG    1        0.025  -0.250   2.551  0.00  0.00    +0.070 A 
ATOM     14  C   LIG    1        0.023  -0.724   1.208  0.00  0.00    -0.130 A 
ENDROOT
TORSDOF 0
ENDMDL
MODEL       38
REMARK  Name = ZINC000001598351
REMARK                            x       y       z     vdW  Elec       q    Type
REMARK                         _______ _______ _______ _____ _____    ______ ____
ROOT
ATOM      1  C   LIG    1       -2.610  -2.711   0.012  0.00  0.00    +0.230 A 
ATOM      2  C   LIG    1       -2.599  -4.123   0.011  0.00  0.00    -0.100 A 
ATOM      3  C   LIG    1       -1.393  -4.841   0.002  0.00  0.00    +0.020 A 
ATOM      4  C   LIG    1       -1.419  -6.202   0.001  0.00  0.00    -0.010 A 
ATOM      5  C   LIG    1       -2.628  -6.896   0.008  0.00  0.00    +0.010 A 
ATOM      6  C   LIG    1       -3.816  -6.232   0.016  0.00  0.00    +0.010 A 
ATOM      7  C   LIG    1       -3.828  -4.827   0.018  0.00  0.00    -0.010 A 
ATOM      8  C   LIG    1       -5.036  -4.109   0.027  0.00  0.00    -0.050 A 
ATOM      9  C   LIG    1       -5.018  -2.748   0.029  0.00  0.00    +0.060 A 
ATOM     10  C   LIG    1       -3.817  -2.045   0.028  0.00  0.00    -0.100 A 
ENDROOT
BRANCH   1  11
ATOM     11  N   LIG    1       -1.413  -1.998   0.005  0.00  0.00    -0.740 N 
ATOM     12  H   LIG    1       -0.567  -2.472  -0.006  0.00  0.00    +0.400 HD
BRANCH  11  13
ATOM     13  C   LIG    1       -1.433  -0.534   0.013  0.00  0.00    +0.240 C 
BRANCH  13  15
ATOM     14  C   LIG    1       -0.019   1.526   0.010  0.00  0.00    +0.030 C 
ATOM     15  C   LIG    1        0.002  -0.004   0.002  0.00  0.00    +0.000 C 
ENDBRANCH  13  15
ENDBRANCH  11  13
ENDBRANCH   1  11
TORSDOF 3
ENDMDL
MODEL       39
REMARK  Name = ZINC000142057350
REMARK                            x       y       z     vdW  Elec       q    Type
REMARK                         _______ _______ _______ _____ _____    ______ ____
ROOT
ATOM      1  C   LIG    1        2.630  -0.566  -2.552  0.00  0.00    -0.080 A 
ATOM      2  C   LIG    1        3.267  -1.793  -2.545  0.00  0.00    +0.030 A 
ATOM      3  C   LIG    1        3.821  -2.291  -3.710  0.00  0.00    +0.030 A 
ATOM      4  C   LIG    1        3.740  -1.562  -4.881  0.00  0.00    +0.030 A 
ATOM      5  C   LIG    1        3.103  -0.333  -4.888  0.00  0.00    -0.040 A 
ATOM      6 CL   LIG    1        2.999   0.583  -6.359  0.00  0.00    -0.070 Cl
ATOM      7  C   LIG    1        2.543   0.162  -3.724  0.00  0.00    +0.040 A 
ENDROOT
BRANCH   1   8
ATOM      8  C   LIG    1        2.026  -0.024  -1.282  0.00  0.00    +0.220 C 
BRANCH   8   9
ATOM      9  O   LIG    1        0.671  -0.465  -1.174  0.00  0.00    -0.370 OA
BRANCH   9  11
ATOM     10  C   LIG    1       -0.019   1.526   0.010  0.00  0.00    +0.020 C 
ATOM     11  C   LIG    1        0.002  -0.004   0.002  0.00  0.00    +0.110 C 
ATOM     12  C   LIG    1       -1.433  -0.534   0.013  0.00  0.00    +0.050 C 
ATOM     13  C   LIG    1        0.742  -0.511   1.242  0.00  0.00    +0.020 C 
ENDBRANCH   9  11
ENDBRANCH   8   9
ENDBRANCH   1   8
TORSDOF 3
ENDMDL
MODEL       40
REMARK  Name = ZINC000005932126
REMARK                            x       y       z     vdW  Elec       q    Type
REMARK                         _______ _______ _______ _____ _____    ______ ____
ROOT
ATOM      1  C   LIG    1       -0.018   1.503   0.010  0.00  0.00    +0.130 C 
ATOM      2  C   LIG    1        0.002  -0.004   0.002  0.00  0.00    +0.030 A 
ATOM      3  C   LIG    1        0.006  -0.691  -1.167  0.00  0.00    +0.010 A 
ATOM      4  C   LIG    1        0.025  -2.100  -1.164  0.00  0.00    +0.340 A 
ATOM      5  N   LIG    1        0.040  -2.803  -0.018  0.00  0.00    -0.550 N 
ATOM      6  H   LIG    1        0.053  -3.773  -0.052  0.00  0.00    +0.430 HD
ATOM      7  C   LIG    1        0.037  -2.166   1.206  0.00  0.00    +0.150 A 
ATOM      8  C   LIG    1        0.053  -2.893   2.391  0.00  0.00    -0.110 A 
ATOM      9  C   LIG    1        0.050  -2.229   3.600  0.00  0.00    +0.070 A 
ATOM     10  C   LIG    1        0.031  -0.842   3.646  0.00  0.00    +0.010 A 
ATOM     11  C   LIG    1        0.015  -0.108   2.494  0.00  0.00    +0.070 A 
ATOM     12  C   LIG    1        0.074  -4.399   2.355  0.00  0.00    +0.100 C 
ATOM     13  S   LIG    1        0.029  -2.938  -2.657  0.00  0.00    -0.600 S 
ATOM     14  C   LIG    1        0.024  -0.759   1.257  0.00  0.00    -0.100 A 
ENDROOT
TORSDOF 0
ENDMDL
MODEL       41
REMARK  Name = ZINC000004237712
REMARK                            x       y       z     vdW  Elec       q    Type
REMARK                         _______ _______ _______ _____ _____    ______ ____
ROOT
ATOM      1  C   LIG    1       -2.826  -2.585   0.015  0.00  0.00    -0.090 A 
ATOM      2  C   LIG    1       -3.464  -2.825   1.218  0.00  0.00    +0.040 A 
ATOM      3  C   LIG    1       -4.760  -3.303   1.231  0.00  0.00    -0.010 A 
ATOM      4  C   LIG    1       -5.422  -3.542   0.035  0.00  0.00    +0.140 A 
ATOM      5  C   LIG    1       -4.779  -3.300  -1.172  0.00  0.00    -0.010 A 
ATOM      6  C   LIG    1       -3.485  -2.817  -1.178  0.00  0.00    +0.040 A 
ENDROOT
BRANCH   4   7
ATOM      7  N   LIG    1       -6.738  -4.026   0.045  0.00  0.00    -0.400 N 
ATOM      8  C   LIG    1       -7.479  -4.297   1.160  0.00  0.00    +0.140 A 
ATOM      9  C   LIG    1       -8.688  -4.742   0.764  0.00  0.00    -0.050 A 
ATOM     10  C   LIG    1       -8.697  -4.748  -0.645  0.00  0.00    -0.050 A 
ATOM     11  C   LIG    1       -7.494  -4.301  -1.059  0.00  0.00    +0.140 A 
ENDBRANCH   4   7
BRANCH   1  12
ATOM     12  C   LIG    1       -1.413  -2.063   0.004  0.00  0.00    +0.060 C 
BRANCH  12  13
ATOM     13  C   LIG    1       -1.433  -0.534   0.013  0.00  0.00    +0.000 C 
BRANCH  13  15
ATOM     14  C   LIG    1       -0.019   1.526   0.010  0.00  0.00    +0.000 C 
ATOM     15  C   LIG    1        0.002  -0.004   0.002  0.00  0.00    -0.010 C 
ENDBRANCH  13  15
ENDBRANCH  12  13
ENDBRANCH   1  12
TORSDOF 4
ENDMDL
MODEL       42
REMARK  Name = ZINC000001704969
REMARK                            x       y       z     vdW  Elec       q    Type
REMARK                         _______ _______ _______ _____ _____    ______ ____
ROOT
ATOM      1  C   LIG    1        1.705   6.266   1.390  0.00  0.00    -0.090 A 
ATOM      2  C   LIG    1        1.143   6.822   0.246  0.00  0.00    -0.020 A 
ATOM      3  C   LIG    1        1.059   8.194   0.117  0.00  0.00    +0.030 A 
ATOM      4  C   LIG    1        1.533   9.015   1.123  0.00  0.00    +0.010 A 
ATOM      5  C   LIG    1        2.093   8.466   2.262  0.00  0.00    +0.030 A 
ATOM      6  C   LIG    1        2.175   7.095   2.401  0.00  0.00    +0.030 A 
ENDROOT
BRANCH   1   7
ATOM      7  S   LIG    1        1.814   4.516   1.559  0.00  0.00    -0.100 S 
BRANCH   7   8
ATOM      8  C   LIG    1        1.085   3.910   0.013  0.00  0.00    +0.130 C 
BRANCH   8  11
ATOM      9 CL   LIG    1        0.002  -0.004   0.002  0.00  0.00    -0.080 Cl
ATOM     10  C   LIG    1       -0.021   1.732   0.012  0.00  0.00    +0.070 C 
ATOM     11  C   LIG    1        1.105   2.403   0.004  0.00  0.00    -0.010 C 
ENDBRANCH   8  11
ENDBRANCH   7   8
ENDBRANCH   1   7
TORSDOF 3
ENDMDL
MODEL       43
REMARK  Name = ZINC000006814964
REMARK                            x       y       z     vdW  Elec       q    Type
REMARK                         _______ _______ _______ _____ _____    ______ ____
ROOT
ATOM      1  C   LIG    1       -0.018   1.503   0.010  0.00  0.00    +0.090 C 
ATOM      2  C   LIG    1        0.002  -0.004   0.002  0.00  0.00    -0.080 A 
ATOM      3  C   LIG    1        0.006  -0.686  -1.202  0.00  0.00    +0.020 A 
ATOM      4  C   LIG    1        0.024  -2.066  -1.216  0.00  0.00    +0.010 A 
ATOM      5  C   LIG    1        0.040  -2.773  -0.013  0.00  0.00    -0.020 A 
ATOM      6  C   LIG    1        0.036  -2.079   1.198  0.00  0.00    +0.030 A 
ATOM      7  C   LIG    1        0.023  -0.699   1.198  0.00  0.00    +0.010 A 
ENDROOT
BRANCH   5   8
ATOM      8  C   LIG    1        0.060  -4.251  -0.021  0.00  0.00    -0.140 A 
ATOM      9  C   LIG    1        0.071  -5.035   1.075  0.00  0.00    +0.010 A 
ATOM     10  C   LIG    1        0.089  -6.390   0.814  0.00  0.00    +0.010 A 
ATOM     11  C   LIG    1        0.094  -6.718  -0.481  0.00  0.00    -0.050 A 
ATOM     12  S   LIG    1        0.067  -5.259  -1.463  0.00  0.00    +0.120 S 
ENDBRANCH   5   8
TORSDOF 1
ENDMDL
MODEL       44
REMARK  Name = ZINC000007277340
REMARK                            x       y       z     vdW  Elec       q    Type
REMARK                         _______ _______ _______ _____ _____    ______ ____
ROOT
ATOM      1  N   LIG    1       -0.612  -2.548   1.244  0.00  0.00    -0.740 N 
ATOM      2  H   LIG    1       -1.333  -2.000   0.898  0.00  0.00    +0.400 HD
ENDROOT
BRANCH   1   8
ATOM      3  C   LIG    1       -0.019   1.526   0.010  0.00  0.00    +0.020 C 
ATOM      4  C   LIG    1        0.002  -0.004   0.002  0.00  0.00    -0.020 C 
ATOM      5  C   LIG    1        0.718  -0.497  -1.257  0.00  0.00    +0.000 C 
ATOM      6  C   LIG    1        0.739  -2.027  -1.265  0.00  0.00    +0.000 C 
ATOM      7  C   LIG    1        1.479  -2.534  -0.026  0.00  0.00    +0.000 C 
ATOM      8  C   LIG    1        0.763  -2.041   1.233  0.00  0.00    +0.230 C 
ATOM      9  C   LIG    1        0.742  -0.511   1.242  0.00  0.00    +0.030 C 
ENDBRANCH   1   8
BRANCH   1  10
ATOM     10  C   LIG    1       -0.882  -3.821   1.750  0.00  0.00    +0.220 A 
ATOM     11  C   LIG    1        0.149  -4.605   2.251  0.00  0.00    -0.080 A 
ATOM     12  C   LIG    1       -0.122  -5.863   2.752  0.00  0.00    +0.050 A 
ATOM     13  C   LIG    1       -1.419  -6.342   2.755  0.00  0.00    -0.060 A 
ATOM     14  C   LIG    1       -2.449  -5.564   2.258  0.00  0.00    +0.050 A 
ATOM     15  C   LIG    1       -2.185  -4.303   1.761  0.00  0.00    -0.080 A 
ENDBRANCH   1  10
TORSDOF 2
ENDMDL
MODEL       45
REMARK  Name = ZINC000007277351
REMARK                            x       y       z     vdW  Elec       q    Type
REMARK                         _______ _______ _______ _____ _____    ______ ____
ROOT
ATOM      1  N   LIG    1        1.471  -2.526   2.420  0.00  0.00    -0.750 N 
ATOM      2  H   LIG    1        2.131  -1.963   2.855  0.00  0.00    +0.400 HD
ENDROOT
BRANCH   1   8
ATOM      3  C   LIG    1       -0.019   1.526   0.010  0.00  0.00    +0.020 C 
ATOM      4  C   LIG    1        0.002  -0.004   0.002  0.00  0.00    -0.020 C 
ATOM      5  C   LIG    1        0.718  -0.497  -1.257  0.00  0.00    +0.000 C 
ATOM      6  C   LIG    1        0.739  -2.027  -1.265  0.00  0.00    +0.010 C 
ATOM      7  C   LIG    1        1.479  -2.534  -0.026  0.00  0.00    +0.000 C 
ATOM      8  C   LIG    1        0.763  -2.041   1.233  0.00  0.00    +0.230 C 
ATOM      9  C   LIG    1        0.742  -0.511   1.242  0.00  0.00    +0.020 C 
ENDBRANCH   1   8
BRANCH   1  10
ATOM     10  C   LIG    1        1.197  -3.799   2.925  0.00  0.00    +0.220 A 
ATOM     11  C   LIG    1        0.257  -4.609   2.300  0.00  0.00    -0.080 A 
ATOM     12  C   LIG    1       -0.011  -5.867   2.802  0.00  0.00    +0.050 A 
ATOM     13  C   LIG    1        0.654  -6.321   3.926  0.00  0.00    -0.060 A 
ATOM     14  C   LIG    1        1.591  -5.518   4.550  0.00  0.00    +0.050 A 
ATOM     15  C   LIG    1        1.868  -4.261   4.051  0.00  0.00    -0.080 A 
ENDBRANCH   1  10
TORSDOF 2
ENDMDL
MODEL       46
REMARK  Name = ZINC000007023289
REMARK                            x       y       z     vdW  Elec       q    Type
REMARK                         _______ _______ _______ _____ _____    ______ ____
ROOT
ATOM      1  C   LIG    1        0.762  -2.018   1.233  0.00  0.00    -0.070 A 
ATOM      2  C   LIG    1        0.168  -2.710   0.195  0.00  0.00    +0.020 A 
ATOM      3  C   LIG    1        0.185  -4.092   0.185  0.00  0.00    -0.010 A 
ATOM      4  C   LIG    1        0.800  -4.784   1.218  0.00  0.00    +0.100 A 
ATOM      5  C   LIG    1        1.397  -4.087   2.259  0.00  0.00    -0.010 A 
ATOM      6  C   LIG    1        1.381  -2.705   2.261  0.00  0.00    +0.020 A 
ENDROOT
BRANCH   4   7
ATOM      7  O   LIG    1        0.819  -6.143   1.210  0.00  0.00    -0.500 OA
ATOM      8  H   LIG    1        1.587  -6.523   0.762  0.00  0.00    +0.390 HD
ENDBRANCH   4   7
BRANCH   1   9
ATOM      9  C   LIG    1        0.742  -0.511   1.242  0.00  0.00    -0.020 C 
BRANCH   9  11
ATOM     10  C   LIG    1       -0.019   1.526   0.010  0.00  0.00    +0.010 C 
ATOM     11  C   LIG    1        0.002  -0.004   0.002  0.00  0.00    +0.020 C 
ENDBRANCH   9  11
BRANCH   9  12
ATOM     12  C   LIG    1        0.026  -0.018   2.500  0.00  0.00    +0.020 C 
ATOM     13  C   LIG    1       -1.409  -0.547   2.511  0.00  0.00    +0.010 C 
ENDBRANCH   9  12
BRANCH   9  14
ATOM     14  C   LIG    1        2.178   0.019   1.231  0.00  0.00    +0.020 C 
ATOM     15  C   LIG    1        2.894  -0.475  -0.028  0.00  0.00    +0.010 C 
ENDBRANCH   9  14
ENDBRANCH   1   9
TORSDOF 5
ENDMDL
MODEL       47
REMARK  Name = ZINC000007277333
REMARK                            x       y       z     vdW  Elec       q    Type
REMARK                         _______ _______ _______ _____ _____    ______ ____
ROOT
ATOM      1  N   LIG    1        2.116  -0.004   1.231  0.00  0.00    -0.740 N 
ATOM      2  H   LIG    1        2.538   0.237   0.392  0.00  0.00    +0.400 HD
ENDROOT
BRANCH   1   9
ATOM      3  C   LIG    1       -0.019   1.526   0.010  0.00  0.00    +0.030 C 
ATOM      4  C   LIG    1        0.002  -0.004   0.002  0.00  0.00    -0.020 C 
ATOM      5  C   LIG    1        0.718  -0.497  -1.257  0.00  0.00    +0.020 C 
ATOM      6  C   LIG    1        0.739  -2.027  -1.265  0.00  0.00    +0.000 C 
ATOM      7  C   LIG    1        1.479  -2.534  -0.026  0.00  0.00    +0.000 C 
ATOM      8  C   LIG    1        0.763  -2.041   1.233  0.00  0.00    +0.000 C 
ATOM      9  C   LIG    1        0.742  -0.511   1.242  0.00  0.00    +0.240 C 
ENDBRANCH   1   9
BRANCH   1  10
ATOM     10  C   LIG    1        2.820   0.133   2.430  0.00  0.00    +0.220 A 
ATOM     11  C   LIG    1        2.219  -0.218   3.633  0.00  0.00    -0.080 A 
ATOM     12  C   LIG    1        2.918  -0.082   4.817  0.00  0.00    +0.050 A 
ATOM     13  C   LIG    1        4.213   0.402   4.806  0.00  0.00    -0.060 A 
ATOM     14  C   LIG    1        4.814   0.752   3.610  0.00  0.00    +0.050 A 
ATOM     15  C   LIG    1        4.123   0.613   2.422  0.00  0.00    -0.080 A 
ENDBRANCH   1  10
TORSDOF 2
ENDMDL
MODEL       48
REMARK  Name = ZINC000261494251
REMARK                            x       y       z     vdW  Elec       q    Type
REMARK                         _______ _______ _______ _____ _____    ______ ____
ROOT
ATOM      1  C   LIG    1        1.341  -2.530  -2.322  0.00  0.00    +0.100 A 
ATOM      2  C   LIG    1        0.606  -2.843  -3.456  0.00  0.00    -0.090 A 
ATOM      3  C   LIG    1        1.221  -3.457  -4.530  0.00  0.00    +0.030 A 
ATOM      4  C   LIG    1        2.570  -3.758  -4.476  0.00  0.00    -0.030 A 
ATOM      5  C   LIG    1        3.306  -3.445  -3.346  0.00  0.00    +0.030 A 
ATOM      6 CL   LIG    1        3.341  -4.529  -5.827  0.00  0.00    -0.070 Cl
ATOM      7  C   LIG    1       -0.864  -2.515  -3.515  0.00  0.00    +0.110 C 
ATOM      8  C   LIG    1        2.696  -2.827  -2.272  0.00  0.00    -0.090 A 
ATOM      9  C   LIG    1        3.497  -2.486  -1.043  0.00  0.00    +0.110 C 
ENDROOT
BRANCH   1  10
ATOM     10  O   LIG    1        0.738  -1.926  -1.265  0.00  0.00    -0.330 OA
BRANCH  10  11
ATOM     11  C   LIG    1        0.718  -0.497  -1.257  0.00  0.00    +0.170 C 
BRANCH  11  13
ATOM     12  C   LIG    1       -0.019   1.526   0.010  0.00  0.00    +0.030 C 
ATOM     13  C   LIG    1        0.002  -0.004   0.002  0.00  0.00    +0.020 C 
ENDBRANCH  11  13
ENDBRANCH  10  11
ENDBRANCH   1  10
TORSDOF 3
ENDMDL
MODEL       49
REMARK  Name = ZINC000143264764
REMARK                            x       y       z     vdW  Elec       q    Type
REMARK                         _______ _______ _______ _____ _____    ______ ____
ROOT
ATOM      1  C   LIG    1        0.707  -0.490  -1.238  0.00  0.00    -0.100 A 
ATOM      2  C   LIG    1        0.222  -0.151  -2.487  0.00  0.00    +0.060 A 
ATOM      3  C   LIG    1        0.869  -0.596  -3.625  0.00  0.00    +0.030 A 
ATOM      4  C   LIG    1        2.002  -1.381  -3.516  0.00  0.00    +0.050 A 
ATOM      5  C   LIG    1        2.489  -1.722  -2.267  0.00  0.00    -0.070 A 
ATOM      6 CL   LIG    1        3.911  -2.708  -2.129  0.00  0.00    -0.050 Cl
ATOM      7  C   LIG    1        1.845  -1.271  -1.126  0.00  0.00    +0.110 A 
ATOM      8  F   LIG    1        2.320  -1.603   0.094  0.00  0.00    -0.120 F 
ENDROOT
BRANCH   1  10
ATOM      9  C   LIG    1       -0.019   1.526   0.010  0.00  0.00    +0.040 C 
ATOM     10  C   LIG    1        0.002  -0.004   0.002  0.00  0.00    +0.030 C 
ATOM     11  C   LIG    1       -1.433  -0.534   0.013  0.00  0.00    +0.040 C 
ENDBRANCH   1  10
TORSDOF 1
ENDMDL
MODEL       50
REMARK  Name = ZINC000005761672
REMARK                            x       y       z     vdW  Elec       q    Type
REMARK                         _______ _______ _______ _____ _____    ______ ____
ROOT
ATOM      1  C   LIG    1       -1.412  -0.526   0.013  0.00  0.00    -0.100 A 
ATOM      2  C   LIG    1       -2.259  -0.205   1.055  0.00  0.00    +0.010 A 
ATOM      3  C   LIG    1       -3.556  -0.684   1.066  0.00  0.00    +0.000 A 
ATOM      4  C   LIG    1       -4.009  -1.484   0.034  0.00  0.00    +0.020 A 
ATOM      5  C   LIG    1       -3.165  -1.807  -1.012  0.00  0.00    -0.090 A 
ATOM      6  C   LIG    1       -1.865  -1.324  -1.028  0.00  0.00    +0.110 A 
ENDROOT
BRANCH   5   7
ATOM      7  C   LIG    1       -3.659  -2.679  -2.138  0.00  0.00    -0.020 C 
ATOM      8  C   LIG    1       -2.802  -3.944  -2.217  0.00  0.00    +0.030 C 
ATOM      9  C   LIG    1       -3.561  -1.912  -3.458  0.00  0.00    +0.030 C 
ATOM     10  C   LIG    1       -5.117  -3.067  -1.880  0.00  0.00    +0.030 C 
ENDBRANCH   5   7
BRANCH   1  12
ATOM     11  C   LIG    1       -0.019   1.526   0.010  0.00  0.00    +0.030 C 
ATOM     12  C   LIG    1        0.002  -0.004   0.002  0.00  0.00    +0.020 C 
ATOM     13  C   LIG    1        0.742  -0.511   1.242  0.00  0.00    +0.040 C 
ENDBRANCH   1  12
BRANCH   6  14
ATOM     14  O   LIG    1       -1.034  -1.641  -2.055  0.00  0.00    -0.490 OA
ATOM     15  H   LIG    1       -1.065  -1.016  -2.793  0.00  0.00    +0.380 HD
ENDBRANCH   6  14
TORSDOF 3
ENDMDL
MODEL       51
REMARK  Name = ZINC000008444949
REMARK                            x       y       z     vdW  Elec       q    Type
REMARK                         _______ _______ _______ _____ _____    ______ ____
ROOT
ATOM      1  C   LIG    1       -0.018   1.503   0.010  0.00  0.00    +0.090 C 
ATOM      2  C   LIG    1        0.002  -0.004   0.002  0.00  0.00    -0.090 A 
ATOM      3  C   LIG    1        0.006  -0.686  -1.201  0.00  0.00    +0.000 A 
ATOM      4  C   LIG    1        0.024  -2.067  -1.215  0.00  0.00    +0.020 A 
ATOM      5  C   LIG    1        0.040  -2.772  -0.013  0.00  0.00    -0.050 A 
ATOM      6  C   LIG    1        0.037  -2.080   1.196  0.00  0.00    +0.020 A 
ATOM      7  C   LIG    1        0.023  -0.700   1.198  0.00  0.00    +0.000 A 
ENDROOT
BRANCH   5   8
ATOM      8  C   LIG    1        0.061  -4.256  -0.021  0.00  0.00    -0.050 A 
ATOM      9  C   LIG    1        0.070  -4.949  -1.230  0.00  0.00    +0.020 A 
ATOM     10  C   LIG    1        0.090  -6.329  -1.232  0.00  0.00    +0.000 A 
ATOM     11  C   LIG    1        0.100  -7.024  -0.037  0.00  0.00    -0.090 A 
ATOM     12  C   LIG    1        0.091  -6.342   1.167  0.00  0.00    +0.000 A 
ATOM     13  C   LIG    1        0.122  -8.531  -0.045  0.00  0.00    +0.090 C 
ATOM     14  C   LIG    1        0.076  -4.962   1.180  0.00  0.00    +0.020 A 
ENDBRANCH   5   8
TORSDOF 1
ENDMDL
MODEL       52
REMARK  Name = ZINC000002046112
REMARK                            x       y       z     vdW  Elec       q    Type
REMARK                         _______ _______ _______ _____ _____    ______ ____
ROOT
ATOM      1  C   LIG    1        1.341  -2.529  -2.322  0.00  0.00    +0.130 A 
ATOM      2  C   LIG    1        1.909  -1.746  -3.331  0.00  0.00    -0.060 A 
ATOM      3  C   LIG    1        2.521  -2.320  -4.402  0.00  0.00    +0.070 A 
ATOM      4  C   LIG    1        2.584  -3.721  -4.500  0.00  0.00    -0.090 A 
ATOM      5  C   LIG    1        3.208  -4.347  -5.592  0.00  0.00    +0.040 A 
ATOM      6  C   LIG    1        3.252  -5.706  -5.654  0.00  0.00    -0.010 A 
ATOM      7  C   LIG    1        2.687  -6.489  -4.650  0.00  0.00    +0.020 A 
ATOM      8  C   LIG    1        2.074  -5.918  -3.577  0.00  0.00    +0.010 A 
ATOM      9  C   LIG    1        2.009  -4.517  -3.478  0.00  0.00    -0.010 A 
ATOM     10  C   LIG    1        1.390  -3.893  -2.383  0.00  0.00    -0.030 A 
ENDROOT
BRANCH   1  11
ATOM     11  O   LIG    1        0.738  -1.926  -1.265  0.00  0.00    -0.320 OA
BRANCH  11  12
ATOM     12  C   LIG    1        0.718  -0.497  -1.257  0.00  0.00    +0.180 C 
BRANCH  12  14
ATOM     13  C   LIG    1       -0.019   1.526   0.010  0.00  0.00    +0.040 C 
ATOM     14  C   LIG    1        0.002  -0.004   0.002  0.00  0.00    +0.020 C 
ENDBRANCH  12  14
ENDBRANCH  11  12
ENDBRANCH   1  11
TORSDOF 3
ENDMDL
MODEL       53
REMARK  Name = ZINC000026892037
REMARK                            x       y       z     vdW  Elec       q    Type
REMARK                         _______ _______ _______ _____ _____    ______ ____
ROOT
ATOM      1  C   LIG    1       -2.616  -2.596   0.013  0.00  0.00    +0.130 A 
ATOM      2  C   LIG    1       -3.791  -1.857   0.022  0.00  0.00    -0.080 A 
ATOM      3  C   LIG    1       -5.012  -2.504   0.030  0.00  0.00    +0.040 A 
ATOM      4  C   LIG    1       -5.064  -3.885   0.029  0.00  0.00    -0.110 A 
ATOM      5  C   LIG    1       -3.895  -4.624   0.019  0.00  0.00    +0.050 A 
ATOM      6  C   LIG    1       -2.671  -3.982   0.006  0.00  0.00    -0.020 A 
ENDROOT
BRANCH   4   7
ATOM      7  C   LIG    1       -6.397  -4.588   0.038  0.00  0.00    -0.030 C 
ATOM      8  C   LIG    1       -7.175  -4.189   1.293  0.00  0.00    +0.040 C 
ATOM      9  C   LIG    1       -6.176  -6.101   0.035  0.00  0.00    +0.030 C 
ATOM     10  C   LIG    1       -7.194  -4.186  -1.205  0.00  0.00    +0.040 C 
ENDBRANCH   4   7
BRANCH   1  11
ATOM     11  O   LIG    1       -1.414  -1.962   0.005  0.00  0.00    -0.320 OA
BRANCH  11  12
ATOM     12  C   LIG    1       -1.433  -0.534   0.013  0.00  0.00    +0.180 C 
BRANCH  12  14
ATOM     13  C   LIG    1       -0.019   1.526   0.010  0.00  0.00    +0.040 C 
ATOM     14  C   LIG    1        0.002  -0.004   0.002  0.00  0.00    +0.020 C 
ENDBRANCH  12  14
ENDBRANCH  11  12
ENDBRANCH   1  11
TORSDOF 4
ENDMDL
MODEL       54
REMARK  Name = ZINC000002168373
REMARK                            x       y       z     vdW  Elec       q    Type
REMARK                         _______ _______ _______ _____ _____    ______ ____
ROOT
ATOM      1  C   LIG    1       -2.615  -2.595   0.013  0.00  0.00    +0.150 A 
ATOM      2  C   LIG    1       -2.676  -4.004   0.012  0.00  0.00    -0.070 A 
ATOM      3  C   LIG    1       -1.508  -4.784   0.003  0.00  0.00    +0.050 A 
ATOM      4  C   LIG    1       -1.605  -6.142   0.002  0.00  0.00    -0.010 A 
ATOM      5  C   LIG    1       -2.848  -6.772   0.011  0.00  0.00    +0.020 A 
ATOM      6  C   LIG    1       -4.000  -6.048   0.020  0.00  0.00    +0.010 A 
ATOM      7  C   LIG    1       -3.940  -4.644   0.021  0.00  0.00    -0.020 A 
ATOM      8  C   LIG    1       -5.108  -3.864   0.030  0.00  0.00    -0.020 A 
ATOM      9  C   LIG    1       -5.014  -2.505   0.032  0.00  0.00    +0.060 A 
ATOM     10  C   LIG    1       -3.774  -1.871   0.028  0.00  0.00    -0.100 A 
ENDROOT
BRANCH   1  11
ATOM     11  O   LIG    1       -1.414  -1.962   0.005  0.00  0.00    -0.310 OA
BRANCH  11  12
ATOM     12  C   LIG    1       -1.433  -0.534   0.013  0.00  0.00    +0.180 C 
BRANCH  12  14
ATOM     13  C   LIG    1       -0.019   1.526   0.010  0.00  0.00    +0.040 C 
ATOM     14  C   LIG    1        0.002  -0.004   0.002  0.00  0.00    +0.020 C 
ENDBRANCH  12  14
ENDBRANCH  11  12
ENDBRANCH   1  11
TORSDOF 3
ENDMDL
MODEL       55
REMARK  Name = ZINC000006533909
REMARK                            x       y       z     vdW  Elec       q    Type
REMARK                         _______ _______ _______ _____ _____    ______ ____
ROOT
ATOM      1  C   LIG    1       -0.018   1.503   0.010  0.00  0.00    +0.090 C 
ATOM      2  C   LIG    1        0.002  -0.004   0.002  0.00  0.00    -0.110 A 
ATOM      3  C   LIG    1        0.006  -0.687  -1.206  0.00  0.00    +0.090 A 
ATOM      4  C   LIG    1        0.024  -2.065  -1.235  0.00  0.00    -0.020 A 
ATOM      5  C   LIG    1        0.039  -2.782  -0.043  0.00  0.00    +0.170 A 
ATOM      6  N   LIG    1        0.058  -4.161  -0.043  0.00  0.00    -0.580 N 
ATOM      7  H   LIG    1        0.060  -4.635  -0.889  0.00  0.00    +0.420 HD
ATOM      8  C   LIG    1        0.073  -4.871   1.114  0.00  0.00    +0.220 A 
ATOM      9  C   LIG    1        0.071  -4.281   2.326  0.00  0.00    -0.070 A 
ATOM     10  C   LIG    1        0.052  -2.870   2.429  0.00  0.00    +0.190 A 
ATOM     11  S   LIG    1        0.050  -2.095   3.956  0.00  0.00    -0.570 S 
ATOM     12  C   LIG    1        0.093  -6.376   1.040  0.00  0.00    +0.150 C 
ATOM     13  C   LIG    1        0.036  -2.089   1.180  0.00  0.00    -0.120 A 
ATOM     14  C   LIG    1        0.023  -0.695   1.194  0.00  0.00    +0.130 A 
ENDROOT
TORSDOF 0
ENDMDL
MODEL       56
REMARK  Name = ZINC000000331138
REMARK                            x       y       z     vdW  Elec       q    Type
REMARK                         _______ _______ _______ _____ _____    ______ ____
ROOT
ATOM      1 CL   LIG    1        0.002  -0.004   0.002  0.00  0.00    -0.010 Cl
ATOM      2  C   LIG    1       -0.021   1.732   0.012  0.00  0.00    +0.220 A 
ATOM      3  C   LIG    1       -1.248   2.393   0.033  0.00  0.00    +0.010 A 
ATOM      4  C   LIG    1       -1.285   3.760   0.041  0.00  0.00    +0.030 A 
ATOM      5  C   LIG    1       -0.061   4.458   0.028  0.00  0.00    -0.100 A 
ATOM      6  C   LIG    1       -0.020   5.862   0.035  0.00  0.00    +0.050 A 
ATOM      7  C   LIG    1        1.182   6.500   0.022  0.00  0.00    +0.040 A 
ATOM      8  C   LIG    1        2.374   5.779   0.002  0.00  0.00    +0.050 A 
ATOM      9  C   LIG    1        2.371   4.418  -0.007  0.00  0.00    +0.050 A 
ATOM     10  C   LIG    1        1.149   3.723   0.006  0.00  0.00    +0.150 A 
ATOM     11 CL   LIG    1       -2.798   4.611   0.068  0.00  0.00    -0.030 Cl
ATOM     12  N   LIG    1        1.116   2.386   0.004  0.00  0.00    -0.460 NA
ENDROOT
TORSDOF 0
ENDMDL
MODEL       57
REMARK  Name = ZINC000001722852
REMARK                            x       y       z     vdW  Elec       q    Type
REMARK                         _______ _______ _______ _____ _____    ______ ____
ROOT
ATOM      1 CL   LIG    1        0.002  -0.004   0.002  0.00  0.00    -0.050 Cl
ATOM      2  C   LIG    1       -0.021   1.732   0.012  0.00  0.00    -0.020 A 
ATOM      3  C   LIG    1       -1.243   2.403   0.033  0.00  0.00    +0.060 A 
ATOM      4  C   LIG    1       -1.296   3.764   0.040  0.00  0.00    +0.000 A 
ATOM      5  C   LIG    1       -0.103   4.509   0.027  0.00  0.00    +0.130 A 
ATOM      6  N   LIG    1       -0.125   5.846   0.035  0.00  0.00    -0.460 NA
ATOM      7  C   LIG    1        0.984   6.545   0.023  0.00  0.00    +0.310 A 
ATOM      8  C   LIG    1        2.236   5.934   0.002  0.00  0.00    -0.020 A 
ATOM      9  C   LIG    1        2.330   4.572  -0.007  0.00  0.00    +0.100 A 
ATOM     10  C   LIG    1        1.137   3.824   0.006  0.00  0.00    -0.090 A 
ATOM     11 CL   LIG    1       -2.831   4.576   0.066  0.00  0.00    -0.030 Cl
ATOM     12  C   LIG    1        1.155   2.420   0.004  0.00  0.00    +0.070 A 
ENDROOT
TORSDOF 0
ENDMDL
MODEL       58
REMARK  Name = ZINC000000391973
REMARK                            x       y       z     vdW  Elec       q    Type
REMARK                         _______ _______ _______ _____ _____    ______ ____
ROOT
ATOM      1 CL   LIG    1        0.002  -0.004   0.002  0.00  0.00    -0.040 Cl
ATOM      2  C   LIG    1       -0.021   1.732   0.012  0.00  0.00    -0.010 A 
ATOM      3  C   LIG    1       -1.229   2.407   0.033  0.00  0.00    +0.050 A 
ATOM      4  C   LIG    1       -1.247   3.790   0.040  0.00  0.00    -0.010 A 
ATOM      5  C   LIG    1       -0.059   4.498   0.028  0.00  0.00    +0.050 A 
ATOM      6  C   LIG    1        1.148   3.823   0.007  0.00  0.00    -0.010 A 
ATOM      7 CL   LIG    1        2.640   4.711  -0.009  0.00  0.00    -0.040 Cl
ATOM      8 CL   LIG    1       -2.762   4.638   0.066  0.00  0.00    -0.040 Cl
ATOM      9  C   LIG    1        1.167   2.440   0.004  0.00  0.00    +0.050 A 
ENDROOT
TORSDOF 0
ENDMDL
MODEL       59
REMARK  Name = ZINC000006119186
REMARK                            x       y       z     vdW  Elec       q    Type
REMARK                         _______ _______ _______ _____ _____    ______ ____
ROOT
ATOM      1 CL   LIG    1        0.002  -0.004   0.002  0.00  0.00    -0.050 Cl
ATOM      2  C   LIG    1       -0.021   1.732   0.012  0.00  0.00    -0.040 A 
ATOM      3  C   LIG    1       -1.234   2.407   0.033  0.00  0.00    +0.080 A 
ATOM      4  C   LIG    1       -1.272   3.786   0.040  0.00  0.00    -0.010 A 
ATOM      5  C   LIG    1       -0.087   4.512   0.028  0.00  0.00    +0.060 A 
ATOM      6  O   LIG    1        0.190   5.832   0.031  0.00  0.00    -0.180 OA
ATOM      7  C   LIG    1        1.518   6.043   0.013  0.00  0.00    +0.240 A 
ATOM      8  C   LIG    1        2.171   4.873  -0.002  0.00  0.00    -0.040 A 
ATOM      9  C   LIG    1        1.139   3.829   0.007  0.00  0.00    -0.110 A 
ATOM     10 CL   LIG    1       -2.798   4.613   0.067  0.00  0.00    -0.040 Cl
ATOM     11  C   LIG    1        1.165   2.434   0.004  0.00  0.00    +0.090 A 
ENDROOT
TORSDOF 0
ENDMDL
MODEL       60
REMARK  Name = ZINC000038537202
REMARK                            x       y       z     vdW  Elec       q    Type
REMARK                         _______ _______ _______ _____ _____    ______ ____
ROOT
ATOM      1 CL   LIG    1        0.002  -0.004   0.002  0.00  0.00    -0.040 Cl
ATOM      2  C   LIG    1       -0.021   1.732   0.012  0.00  0.00    -0.010 A 
ATOM      3  C   LIG    1       -1.244   2.401   0.033  0.00  0.00    +0.050 A 
ATOM      4  C   LIG    1       -1.295   3.763   0.041  0.00  0.00    +0.000 A 
ATOM      5  C   LIG    1       -0.100   4.502   0.028  0.00  0.00    -0.100 A 
ATOM      6  C   LIG    1       -0.109   5.909   0.036  0.00  0.00    +0.100 A 
ATOM      7  C   LIG    1        1.091   6.562   0.023  0.00  0.00    -0.020 A 
ATOM      8  C   LIG    1        2.278   5.834   0.003  0.00  0.00    +0.310 A 
ATOM      9  N   LIG    1        2.283   4.523  -0.005  0.00  0.00    -0.470 NA
ATOM     10  C   LIG    1        1.144   3.823   0.007  0.00  0.00    +0.150 A 
ATOM     11 CL   LIG    1       -2.827   4.579   0.067  0.00  0.00    -0.040 Cl
ATOM     12  C   LIG    1        1.155   2.418   0.004  0.00  0.00    +0.070 A 
ENDROOT
TORSDOF 0
ENDMDL
MODEL       61
REMARK  Name = ZINC000001756222
REMARK                            x       y       z     vdW  Elec       q    Type
REMARK                         _______ _______ _______ _____ _____    ______ ____
ROOT
ATOM      1  P   LIG    1        0.618  -2.366  -1.167  0.00  0.00    +2.480 P 
ATOM      2  O   LIG    1        1.049  -2.780   0.187  0.00  0.00    -0.990 OA
ENDROOT
BRANCH   1   3
ATOM      3  C   LIG    1        0.799  -0.560  -1.337  0.00  0.00    -0.520 C 
BRANCH   3   5
ATOM      4  C   LIG    1        0.510   1.382  -2.881  0.00  0.00    +0.030 C 
ATOM      5  C   LIG    1        0.386  -0.137  -2.748  0.00  0.00    +0.010 C 
ENDBRANCH   3   5
ENDBRANCH   1   3
BRANCH   1   6
ATOM      6  C   LIG    1        1.651  -3.201  -2.415  0.00  0.00    -0.560 C 
BRANCH   6   7
ATOM      7  C   LIG    1        3.127  -2.914  -2.131  0.00  0.00    +0.030 C 
ATOM      8  C   LIG    1        3.994  -3.614  -3.178  0.00  0.00    +0.020 C 
ENDBRANCH   6   7
ENDBRANCH   1   6
BRANCH   1   9
ATOM      9  C   LIG    1       -1.128  -2.828  -1.416  0.00  0.00    -0.560 C 
BRANCH   9  10
ATOM     10  C   LIG    1       -1.978  -2.230  -0.293  0.00  0.00    +0.030 C 
ATOM     11  C   LIG    1       -3.453  -2.555  -0.542  0.00  0.00    +0.020 C 
ENDBRANCH   9  10
ENDBRANCH   1   9
TORSDOF 6
ENDMDL
MODEL       62
REMARK  Name = ZINC000002244224
REMARK                            x       y       z     vdW  Elec       q    Type
REMARK                         _______ _______ _______ _____ _____    ______ ____
ROOT
ATOM      1 CL   LIG    1        0.002  -0.004   0.002  0.00  0.00    +0.010 Cl
ATOM      2  C   LIG    1       -0.021   1.732   0.012  0.00  0.00    -0.140 A 
ATOM      3  C   LIG    1       -1.123   2.486   0.032  0.00  0.00    +0.060 A 
ATOM      4  C   LIG    1       -0.893   3.853   0.036  0.00  0.00    -0.030 A 
ATOM      5  C   LIG    1        0.394   4.206   0.019  0.00  0.00    -0.150 A 
ATOM      6 CL   LIG    1        0.983   5.839   0.020  0.00  0.00    +0.020 Cl
ATOM      7 CL   LIG    1       -2.181   5.016   0.062  0.00  0.00    -0.020 Cl
ATOM      8  S   LIG    1        1.402   2.765   0.004  0.00  0.00    +0.250 S 
ENDROOT
TORSDOF 0
ENDMDL
MODEL       63
REMARK  Name = ZINC000000331717
REMARK                            x       y       z     vdW  Elec       q    Type
REMARK                         _______ _______ _______ _____ _____    ______ ____
ROOT
ATOM      1 CL   LIG    1        0.002  -0.004   0.002  0.00  0.00    -0.020 Cl
ATOM      2  C   LIG    1       -0.021   1.732   0.012  0.00  0.00    +0.170 A 
ATOM      3  N   LIG    1       -1.190   2.361   0.032  0.00  0.00    -0.480 NA
ATOM      4  C   LIG    1       -1.292   3.670   0.040  0.00  0.00    +0.240 A 
ATOM      5  C   LIG    1       -0.131   4.463   0.029  0.00  0.00    -0.100 A 
ATOM      6  C   LIG    1       -0.186   5.865   0.038  0.00  0.00    +0.060 A 
ATOM      7  C   LIG    1        0.972   6.582   0.026  0.00  0.00    +0.030 A 
ATOM      8  C   LIG    1        2.212   5.947   0.004  0.00  0.00    +0.050 A 
ATOM      9  C   LIG    1        2.304   4.588  -0.005  0.00  0.00    +0.030 A 
ATOM     10  C   LIG    1        1.133   3.816   0.007  0.00  0.00    -0.010 A 
ATOM     11 CL   LIG    1       -2.857   4.421   0.067  0.00  0.00    +0.000 Cl
ATOM     12  C   LIG    1        1.161   2.410   0.004  0.00  0.00    +0.030 A 
ENDROOT
TORSDOF 0
ENDMDL
MODEL       64
REMARK  Name = ZINC000014982639
REMARK                            x       y       z     vdW  Elec       q    Type
REMARK                         _______ _______ _______ _____ _____    ______ ____
ROOT
ATOM      1 CL   LIG    1        0.002  -0.004   0.002  0.00  0.00    -0.030 Cl
ATOM      2  C   LIG    1       -0.021   1.732   0.012  0.00  0.00    -0.080 A 
ATOM      3  C   LIG    1       -1.239   2.414   0.033  0.00  0.00    +0.210 A 
ATOM      4  N   LIG    1       -1.294   3.725   0.040  0.00  0.00    -0.450 NA
ATOM      5  C   LIG    1       -0.183   4.468   0.028  0.00  0.00    +0.140 A 
ATOM      6  C   LIG    1       -0.249   5.872   0.037  0.00  0.00    +0.050 A 
ATOM      7  C   LIG    1        0.899   6.602   0.025  0.00  0.00    +0.050 A 
ATOM      8  C   LIG    1        2.146   5.981   0.004  0.00  0.00    +0.030 A 
ATOM      9  C   LIG    1        2.250   4.623  -0.005  0.00  0.00    +0.050 A 
ATOM     10  C   LIG    1        1.086   3.838   0.007  0.00  0.00    -0.100 A 
ATOM     11 CL   LIG    1       -2.718   1.505   0.050  0.00  0.00    +0.000 Cl
ATOM     12  C   LIG    1        1.152   2.432   0.004  0.00  0.00    +0.130 A 
ENDROOT
TORSDOF 0
ENDMDL
MODEL       65
REMARK  Name = ZINC000016677935
REMARK                            x       y       z     vdW  Elec       q    Type
REMARK                         _______ _______ _______ _____ _____    ______ ____
ROOT
ATOM      1 CL   LIG    1        0.002  -0.004   0.002  0.00  0.00    -0.040 Cl
ATOM      2  C   LIG    1       -0.021   1.732   0.012  0.00  0.00    -0.030 A 
ATOM      3  C   LIG    1       -1.244   2.404   0.033  0.00  0.00    -0.020 A 
ATOM      4  C   LIG    1       -1.297   3.765   0.041  0.00  0.00    +0.090 A 
ATOM      5  C   LIG    1       -0.105   4.509   0.028  0.00  0.00    +0.140 A 
ATOM      6  N   LIG    1       -0.126   5.846   0.036  0.00  0.00    -0.470 NA
ATOM      7  C   LIG    1        0.983   6.546   0.025  0.00  0.00    +0.310 A 
ATOM      8  C   LIG    1        2.235   5.935   0.004  0.00  0.00    -0.020 A 
ATOM      9  C   LIG    1        2.328   4.572  -0.006  0.00  0.00    +0.100 A 
ATOM     10  C   LIG    1        1.136   3.824   0.006  0.00  0.00    -0.100 A 
ATOM     11 CL   LIG    1       -2.721   1.492   0.050  0.00  0.00    -0.040 Cl
ATOM     12  C   LIG    1        1.154   2.421   0.004  0.00  0.00    +0.080 A 
ENDROOT
TORSDOF 0
ENDMDL
MODEL       66
REMARK  Name = ZINC000001606008
REMARK                            x       y       z     vdW  Elec       q    Type
REMARK                         _______ _______ _______ _____ _____    ______ ____
ROOT
ATOM      1  P   LIG    1        0.743  -2.320  -1.267  0.00  0.00    +0.500 P 
ENDROOT
BRANCH   1   2
ATOM      2  C   LIG    1        2.360  -2.680  -0.528  0.00  0.00    -0.260 A 
ATOM      3  C   LIG    1        2.500  -2.734   0.858  0.00  0.00    +0.030 A 
ATOM      4  C   LIG    1        3.733  -3.008   1.414  0.00  0.00    +0.010 A 
ATOM      5  C   LIG    1        4.829  -3.229   0.599  0.00  0.00    +0.000 A 
ATOM      6  C   LIG    1        4.696  -3.176  -0.777  0.00  0.00    +0.000 A 
ATOM      7  C   LIG    1        3.467  -2.908  -1.345  0.00  0.00    -0.010 A 
ENDBRANCH   1   2
BRANCH   1   8
ATOM      8  C   LIG    1        0.697  -0.499  -1.210  0.00  0.00    -0.150 C 
BRANCH   8  10
ATOM      9  C   LIG    1        0.036   1.484   0.159  0.00  0.00    +0.000 C 
ATOM     10  C   LIG    1        0.075  -0.045   0.112  0.00  0.00    +0.020 C 
ENDBRANCH   8  10
ENDBRANCH   1   8
BRANCH   1  11
ATOM     11  C   LIG    1        1.055  -2.637  -3.035  0.00  0.00    -0.160 C 
BRANCH  11  12
ATOM     12  C   LIG    1       -0.279  -2.749  -3.776  0.00  0.00    +0.020 C 
ATOM     13  C   LIG    1       -0.017  -3.015  -5.260  0.00  0.00    +0.000 C 
ENDBRANCH  11  12
ENDBRANCH   1  11
TORSDOF 5
ENDMDL
MODEL       67
REMARK  Name = ZINC000000529910
REMARK                            x       y       z     vdW  Elec       q    Type
REMARK                         _______ _______ _______ _____ _____    ______ ____
ROOT
ATOM      1 CL   LIG    1        0.002  -0.004   0.002  0.00  0.00    -0.050 Cl
ATOM      2  C   LIG    1       -0.021   1.732   0.012  0.00  0.00    -0.030 A 
ATOM      3  C   LIG    1       -1.243   2.403   0.033  0.00  0.00    +0.060 A 
ATOM      4  C   LIG    1       -1.296   3.763   0.041  0.00  0.00    +0.080 A 
ATOM      5  C   LIG    1       -0.104   4.508   0.028  0.00  0.00    +0.140 A 
ATOM      6  N   LIG    1       -0.126   5.845   0.036  0.00  0.00    -0.460 NA
ATOM      7  C   LIG    1        0.982   6.546   0.025  0.00  0.00    +0.320 A 
ATOM      8  C   LIG    1        2.234   5.937   0.003  0.00  0.00    -0.010 A 
ATOM      9  C   LIG    1        2.329   4.573  -0.006  0.00  0.00    +0.020 A 
ATOM     10 CL   LIG    1        3.877   3.787  -0.032  0.00  0.00    -0.040 Cl
ATOM     11  C   LIG    1        1.136   3.824   0.007  0.00  0.00    -0.090 A 
ATOM     12  C   LIG    1        1.155   2.421   0.004  0.00  0.00    +0.060 A 
ENDROOT
TORSDOF 0
ENDMDL
MODEL       68
REMARK  Name = ZINC000019721619
REMARK                            x       y       z     vdW  Elec       q    Type
REMARK                         _______ _______ _______ _____ _____    ______ ____
ROOT
ATOM      1 CL   LIG    1        0.002  -0.004   0.002  0.00  0.00    -0.040 Cl
ATOM      2  C   LIG    1       -0.021   1.732   0.012  0.00  0.00    -0.030 A 
ATOM      3  C   LIG    1       -1.242   2.422   0.033  0.00  0.00    -0.010 A 
ATOM      4  C   LIG    1       -2.481   1.755   0.048  0.00  0.00    +0.000 A 
ATOM      5  C   LIG    1       -3.623   2.498   0.068  0.00  0.00    +0.250 A 
ATOM      6  N   LIG    1       -3.595   3.823   0.074  0.00  0.00    -0.480 NA
ATOM      7  C   LIG    1       -2.478   4.511   0.061  0.00  0.00    +0.320 A 
ATOM      8  C   LIG    1       -1.244   3.841   0.040  0.00  0.00    -0.100 A 
ATOM      9  C   LIG    1       -0.021   4.531   0.026  0.00  0.00    +0.000 A 
ATOM     10  C   LIG    1        1.147   3.828   0.006  0.00  0.00    +0.050 A 
ATOM     11 CL   LIG    1        0.004   6.267   0.035  0.00  0.00    -0.040 Cl
ATOM     12  C   LIG    1        1.147   2.435   0.004  0.00  0.00    +0.080 A 
ENDROOT
TORSDOF 0
ENDMDL
MODEL       69
REMARK  Name = ZINC000000388208
REMARK                            x       y       z     vdW  Elec       q    Type
REMARK                         _______ _______ _______ _____ _____    ______ ____
ROOT
ATOM      1 CL   LIG    1        0.002  -0.004   0.002  0.00  0.00    -0.040 Cl
ATOM      2  C   LIG    1       -0.021   1.732   0.012  0.00  0.00    -0.020 A 
ATOM      3  C   LIG    1       -1.229   2.407   0.033  0.00  0.00    +0.060 A 
ATOM      4  C   LIG    1       -1.248   3.789   0.040  0.00  0.00    +0.060 A 
ATOM      5  C   LIG    1       -0.061   4.498   0.026  0.00  0.00    -0.030 A 
ATOM      6  C   LIG    1        1.148   3.822   0.006  0.00  0.00    -0.020 A 
ATOM      7 CL   LIG    1        2.639   4.711  -0.011  0.00  0.00    -0.030 Cl
ATOM      8 CL   LIG    1       -0.085   6.234   0.036  0.00  0.00    -0.040 Cl
ATOM      9  C   LIG    1        1.167   2.440   0.004  0.00  0.00    +0.060 A 
ENDROOT
TORSDOF 0
ENDMDL
MODEL       70
REMARK  Name = ZINC000045028391
REMARK                            x       y       z     vdW  Elec       q    Type
REMARK                         _______ _______ _______ _____ _____    ______ ____
ROOT
ATOM      1 CL   LIG    1        0.002  -0.004   0.002  0.00  0.00    -0.030 Cl
ATOM      2  C   LIG    1       -0.021   1.732   0.012  0.00  0.00    +0.170 A 
ATOM      3  C   LIG    1       -1.233   2.399   0.033  0.00  0.00    +0.000 A 
ATOM      4  C   LIG    1       -1.240   3.785   0.040  0.00  0.00    +0.090 A 
ATOM      5  C   LIG    1       -0.024   4.452   0.027  0.00  0.00    -0.120 A 
ATOM      6  C   LIG    1        1.146   3.718   0.006  0.00  0.00    +0.290 A 
ATOM      7  N   LIG    1        1.117   2.400   0.004  0.00  0.00    -0.480 NA
ENDROOT
BRANCH   5   8
ATOM      8  C   LIG    1        0.020   5.958   0.035  0.00  0.00    +0.080 C 
ATOM      9  C   LIG    1        0.718   6.442  -1.202  0.00  0.00    -0.060 C 
ATOM     10  C   LIG    1        1.587   7.402  -1.215  0.00  0.00    -0.030 C 
ATOM     11  C   LIG    1        2.025   8.157   0.005  0.00  0.00    +0.050 C 
ATOM     12  C   LIG    1        1.026   7.942   1.145  0.00  0.00    +0.020 C 
ATOM     13  C   LIG    1        0.768   6.437   1.281  0.00  0.00    +0.030 C 
ENDBRANCH   5   8
TORSDOF 1
ENDMDL
MODEL       71
REMARK  Name = ZINC000000119471
REMARK                            x       y       z     vdW  Elec       q    Type
REMARK                         _______ _______ _______ _____ _____    ______ ____
ROOT
ATOM      1 CL   LIG    1        0.002  -0.004   0.002  0.00  0.00    -0.050 Cl
ATOM      2  C   LIG    1       -0.021   1.732   0.012  0.00  0.00    -0.010 A 
ATOM      3  C   LIG    1       -1.244   2.401   0.033  0.00  0.00    +0.040 A 
ATOM      4  C   LIG    1       -1.295   3.762   0.041  0.00  0.00    +0.070 A 
ATOM      5  C   LIG    1       -0.102   4.501   0.028  0.00  0.00    -0.100 A 
ATOM      6  C   LIG    1       -0.112   5.910   0.036  0.00  0.00    +0.020 A 
ATOM      7  C   LIG    1        1.090   6.563   0.022  0.00  0.00    -0.010 A 
ATOM      8  C   LIG    1        2.276   5.835   0.001  0.00  0.00    +0.320 A 
ATOM      9  N   LIG    1        2.281   4.524  -0.007  0.00  0.00    -0.470 NA
ATOM     10 CL   LIG    1       -1.607   6.792   0.062  0.00  0.00    -0.040 Cl
ATOM     11  C   LIG    1        1.142   3.823   0.006  0.00  0.00    +0.150 A 
ATOM     12  C   LIG    1        1.155   2.418   0.004  0.00  0.00    +0.070 A 
ENDROOT
TORSDOF 0
ENDMDL
MODEL       72
REMARK  Name = ZINC000038950985
REMARK                            x       y       z     vdW  Elec       q    Type
REMARK                         _______ _______ _______ _____ _____    ______ ____
ROOT
ATOM      1 CL   LIG    1        0.002  -0.004   0.002  0.00  0.00    -0.050 Cl
ATOM      2  C   LIG    1       -0.021   1.732   0.012  0.00  0.00    -0.010 A 
ATOM      3  C   LIG    1       -1.245   2.422   0.033  0.00  0.00    -0.090 A 
ATOM      4  C   LIG    1       -2.474   1.735   0.047  0.00  0.00    +0.100 A 
ATOM      5  C   LIG    1       -3.624   2.472   0.068  0.00  0.00    -0.010 A 
ATOM      6  C   LIG    1       -3.558   3.863   0.074  0.00  0.00    +0.310 A 
ATOM      7  N   LIG    1       -2.412   4.500   0.061  0.00  0.00    -0.460 NA
ATOM      8  C   LIG    1       -1.250   3.839   0.041  0.00  0.00    +0.140 A 
ATOM      9  C   LIG    1       -0.023   4.527   0.027  0.00  0.00    -0.010 A 
ATOM     10  C   LIG    1        1.145   3.826   0.007  0.00  0.00    +0.070 A 
ATOM     11 CL   LIG    1        0.002   6.263   0.037  0.00  0.00    -0.030 Cl
ATOM     12  C   LIG    1        1.147   2.433   0.004  0.00  0.00    +0.060 A 
ENDROOT
TORSDOF 0
ENDMDL
MODEL       73
REMARK  Name = ZINC000036257949
REMARK                            x       y       z     vdW  Elec       q    Type
REMARK                         _______ _______ _______ _____ _____    ______ ____
ROOT
ATOM      1 CL   LIG    1        0.002  -0.004   0.002  0.00  0.00    -0.050 Cl
ATOM      2  C   LIG    1       -0.021   1.732   0.012  0.00  0.00    -0.010 A 
ATOM      3  C   LIG    1       -1.244   2.402   0.033  0.00  0.00    +0.030 A 
ATOM      4  C   LIG    1       -1.299   3.763   0.041  0.00  0.00    +0.080 A 
ATOM      5  C   LIG    1       -0.108   4.503   0.028  0.00  0.00    -0.100 A 
ATOM      6  C   LIG    1        1.136   3.821   0.007  0.00  0.00    -0.010 A 
ATOM      7  C   LIG    1        2.316   4.588  -0.005  0.00  0.00    +0.000 A 
ATOM      8  C   LIG    1        2.214   5.946   0.004  0.00  0.00    +0.270 A 
ATOM      9  N   LIG    1        1.038   6.559   0.024  0.00  0.00    -0.480 NA
ATOM     10  C   LIG    1       -0.103   5.909   0.036  0.00  0.00    +0.220 A 
ATOM     11 CL   LIG    1       -1.603   6.784   0.061  0.00  0.00    -0.010 Cl
ATOM     12  C   LIG    1        1.156   2.420   0.004  0.00  0.00    +0.050 A 
ENDROOT
TORSDOF 0
ENDMDL
MODEL       74
REMARK  Name = ZINC000038537521
REMARK                            x       y       z     vdW  Elec       q    Type
REMARK                         _______ _______ _______ _____ _____    ______ ____
ROOT
ATOM      1 CL   LIG    1        0.002  -0.004   0.002  0.00  0.00    -0.040 Cl
ATOM      2  C   LIG    1       -0.021   1.732   0.012  0.00  0.00    -0.010 A 
ATOM      3  C   LIG    1       -1.244   2.401   0.033  0.00  0.00    +0.050 A 
ATOM      4  C   LIG    1       -1.295   3.762   0.041  0.00  0.00    +0.080 A 
ATOM      5  C   LIG    1       -0.102   4.502   0.028  0.00  0.00    -0.100 A 
ATOM      6  C   LIG    1       -0.113   5.910   0.037  0.00  0.00    +0.100 A 
ATOM      7  C   LIG    1        1.086   6.564   0.024  0.00  0.00    -0.020 A 
ATOM      8  C   LIG    1        2.274   5.837   0.003  0.00  0.00    +0.310 A 
ATOM      9  N   LIG    1        2.281   4.526  -0.005  0.00  0.00    -0.460 NA
ATOM     10  C   LIG    1        1.143   3.825   0.007  0.00  0.00    +0.140 A 
ATOM     11  C   LIG    1        1.156   2.419   0.004  0.00  0.00    -0.010 A 
ATOM     12 CL   LIG    1        2.666   1.562  -0.016  0.00  0.00    -0.020 Cl
ENDROOT
TORSDOF 0
ENDMDL
MODEL       75
REMARK  Name = ZINC000000039758
REMARK                            x       y       z     vdW  Elec       q    Type
REMARK                         _______ _______ _______ _____ _____    ______ ____
ROOT
ATOM      1 CL   LIG    1        0.002  -0.004   0.002  0.00  0.00    -0.020 Cl
ATOM      2  C   LIG    1       -0.021   1.732   0.012  0.00  0.00    +0.210 A 
ATOM      3  C   LIG    1       -1.248   2.394   0.033  0.00  0.00    +0.000 A 
ATOM      4  C   LIG    1       -1.285   3.759   0.041  0.00  0.00    +0.110 A 
ATOM      5  C   LIG    1       -0.064   4.457   0.028  0.00  0.00    -0.100 A 
ATOM      6  C   LIG    1       -0.024   5.862   0.036  0.00  0.00    -0.020 A 
ATOM      7  C   LIG    1        1.180   6.501   0.023  0.00  0.00    +0.040 A 
ATOM      8  C   LIG    1        2.371   5.780   0.001  0.00  0.00    +0.060 A 
ATOM      9  C   LIG    1        2.369   4.419  -0.007  0.00  0.00    +0.070 A 
ATOM     10 CL   LIG    1       -1.499   6.777   0.062  0.00  0.00    -0.050 Cl
ATOM     11  C   LIG    1        1.148   3.723   0.006  0.00  0.00    +0.150 A 
ATOM     12  N   LIG    1        1.116   2.386   0.004  0.00  0.00    -0.460 NA
ENDROOT
TORSDOF 0
ENDMDL
MODEL       76
REMARK  Name = ZINC000089195397
REMARK                            x       y       z     vdW  Elec       q    Type
REMARK                         _______ _______ _______ _____ _____    ______ ____
ROOT
ATOM      1 CL   LIG    1        0.002  -0.004   0.002  0.00  0.00    -0.060 Cl
ATOM      2  C   LIG    1       -0.021   1.732   0.012  0.00  0.00    -0.020 A 
ATOM      3  C   LIG    1       -1.235   2.408   0.033  0.00  0.00    +0.030 A 
ATOM      4  C   LIG    1       -1.269   3.769   0.040  0.00  0.00    +0.080 A 
ATOM      5  C   LIG    1       -0.071   4.515   0.026  0.00  0.00    -0.080 A 
ATOM      6  C   LIG    1        0.117   5.957   0.030  0.00  0.00    +0.030 A 
ATOM      7  C   LIG    1        1.374   6.353   0.013  0.00  0.00    -0.020 A 
ATOM      8  S   LIG    1        2.474   4.988  -0.009  0.00  0.00    +0.100 S 
ATOM      9  C   LIG    1        1.149   3.832   0.005  0.00  0.00    -0.130 A 
ATOM     10  C   LIG    1        1.162   2.434   0.004  0.00  0.00    +0.070 A 
ENDROOT
TORSDOF 0
ENDMDL
MODEL       77
REMARK  Name = ZINC000045028390
REMARK                            x       y       z     vdW  Elec       q    Type
REMARK                         _______ _______ _______ _____ _____    ______ ____
ROOT
ATOM      1 CL   LIG    1        0.002  -0.004   0.002  0.00  0.00    -0.030 Cl
ATOM      2  C   LIG    1       -0.021   1.732   0.012  0.00  0.00    +0.170 A 
ATOM      3  C   LIG    1       -1.233   2.399   0.033  0.00  0.00    +0.000 A 
ATOM      4  C   LIG    1       -1.240   3.785   0.040  0.00  0.00    +0.090 A 
ATOM      5  C   LIG    1       -0.024   4.452   0.027  0.00  0.00    -0.120 A 
ATOM      6  C   LIG    1        1.146   3.718   0.006  0.00  0.00    +0.290 A 
ATOM      7  N   LIG    1        1.117   2.400   0.004  0.00  0.00    -0.480 NA
ENDROOT
BRANCH   5   8
ATOM      8  C   LIG    1        0.020   5.958   0.035  0.00  0.00    +0.080 C 
ATOM      9  C   LIG    1        0.753   6.428   1.257  0.00  0.00    -0.060 C 
ATOM     10  C   LIG    1        1.623   7.387   1.258  0.00  0.00    -0.030 C 
ATOM     11  C   LIG    1        2.025   8.158   0.034  0.00  0.00    +0.050 C 
ATOM     12  C   LIG    1        0.994   7.956  -1.078  0.00  0.00    +0.020 C 
ATOM     13  C   LIG    1        0.732   6.452  -1.226  0.00  0.00    +0.030 C 
ENDBRANCH   5   8
TORSDOF 1
ENDMDL
MODEL       78
REMARK  Name = ZINC000000039759
REMARK                            x       y       z     vdW  Elec       q    Type
REMARK                         _______ _______ _______ _____ _____    ______ ____
ROOT
ATOM      1 CL   LIG    1        0.002  -0.004   0.002  0.00  0.00    -0.020 Cl
ATOM      2  C   LIG    1       -0.021   1.732   0.012  0.00  0.00    +0.210 A 
ATOM      3  C   LIG    1       -1.248   2.394   0.033  0.00  0.00    -0.010 A 
ATOM      4  C   LIG    1       -1.286   3.759   0.040  0.00  0.00    +0.120 A 
ATOM      5  C   LIG    1       -0.063   4.457   0.027  0.00  0.00    -0.100 A 
ATOM      6  C   LIG    1       -0.024   5.861   0.034  0.00  0.00    +0.050 A 
ATOM      7  C   LIG    1        1.178   6.501   0.021  0.00  0.00    +0.040 A 
ATOM      8  C   LIG    1        2.371   5.781  -0.000  0.00  0.00    +0.060 A 
ATOM      9  C   LIG    1        2.370   4.420  -0.008  0.00  0.00    -0.010 A 
ATOM     10 CL   LIG    1        3.871   3.547  -0.034  0.00  0.00    -0.040 Cl
ATOM     11  C   LIG    1        1.148   3.723   0.005  0.00  0.00    +0.150 A 
ATOM     12  N   LIG    1        1.116   2.386   0.004  0.00  0.00    -0.460 NA
ENDROOT
TORSDOF 0
ENDMDL
MODEL       79
REMARK  Name = ZINC000019921035
REMARK                            x       y       z     vdW  Elec       q    Type
REMARK                         _______ _______ _______ _____ _____    ______ ____
ROOT
ATOM      1 CL   LIG    1        0.002  -0.004   0.002  0.00  0.00    -0.080 Cl
ATOM      2  C   LIG    1       -0.021   1.732   0.012  0.00  0.00    -0.090 A 
ATOM      3  C   LIG    1       -1.230   2.406   0.033  0.00  0.00    +0.070 A 
ATOM      4  C   LIG    1       -1.252   3.787   0.040  0.00  0.00    -0.060 A 
ATOM      5  C   LIG    1       -0.059   4.499   0.027  0.00  0.00    +0.220 A 
ATOM      6  C   LIG    1        1.152   3.820   0.006  0.00  0.00    -0.060 A 
ATOM      7  C   LIG    1        1.168   2.439   0.004  0.00  0.00    +0.070 A 
ENDROOT
BRANCH   5   8
ATOM      8  N   LIG    1       -0.078   5.896   0.035  0.00  0.00    -0.740 N 
ATOM      9  H   LIG    1       -0.924   6.370   0.050  0.00  0.00    +0.400 HD
BRANCH   8  10
ATOM     10  C   LIG    1        1.181   6.646   0.021  0.00  0.00    +0.220 C 
ATOM     11  C   LIG    1        1.641   6.877  -1.433  0.00  0.00    +0.000 C 
ATOM     12  C   LIG    1        1.110   8.290  -1.780  0.00  0.00    +0.020 C 
ATOM     13  C   LIG    1        1.313   9.067  -0.455  0.00  0.00    +0.010 C 
ATOM     14  C   LIG    1        0.972   8.038   0.643  0.00  0.00    +0.010 C 
ENDBRANCH   8  10
ENDBRANCH   5   8
TORSDOF 2
ENDMDL
MODEL       80
REMARK  Name = ZINC000002585381
REMARK                            x       y       z     vdW  Elec       q    Type
REMARK                         _______ _______ _______ _____ _____    ______ ____
ROOT
ATOM      1 CL   LIG    1        0.002  -0.004   0.002  0.00  0.00    -0.060 Cl
ATOM      2  C   LIG    1       -0.021   1.732   0.012  0.00  0.00    -0.030 A 
ATOM      3  C   LIG    1       -1.243   2.403   0.033  0.00  0.00    +0.060 A 
ATOM      4  C   LIG    1       -1.296   3.763   0.041  0.00  0.00    +0.080 A 
ATOM      5  C   LIG    1       -0.104   4.508   0.029  0.00  0.00    +0.140 A 
ATOM      6  N   LIG    1       -0.127   5.845   0.037  0.00  0.00    -0.470 NA
ATOM      7  C   LIG    1        0.982   6.546   0.026  0.00  0.00    +0.210 A 
ATOM      8  C   LIG    1        2.236   5.934   0.005  0.00  0.00    -0.010 A 
ATOM      9  C   LIG    1        2.329   4.572  -0.005  0.00  0.00    +0.120 A 
ATOM     10 CL   LIG    1        0.887   8.279   0.037  0.00  0.00    -0.020 Cl
ATOM     11  C   LIG    1        1.136   3.824   0.007  0.00  0.00    -0.100 A 
ATOM     12  C   LIG    1        1.155   2.421   0.004  0.00  0.00    +0.070 A 
ENDROOT
TORSDOF 0
ENDMDL
MODEL       81
REMARK  Name = ZINC000034477957
REMARK                            x       y       z     vdW  Elec       q    Type
REMARK                         _______ _______ _______ _____ _____    ______ ____
ROOT
ATOM      1 CL   LIG    1        0.002  -0.004   0.002  0.00  0.00    -0.050 Cl
ATOM      2  C   LIG    1       -0.021   1.732   0.012  0.00  0.00    -0.010 A 
ATOM      3  C   LIG    1       -1.244   2.401   0.033  0.00  0.00    +0.030 A 
ATOM      4  C   LIG    1       -1.295   3.762   0.040  0.00  0.00    +0.070 A 
ATOM      5  C   LIG    1       -0.102   4.501   0.027  0.00  0.00    -0.110 A 
ATOM      6  C   LIG    1       -0.112   5.909   0.035  0.00  0.00    +0.120 A 
ATOM      7  C   LIG    1        1.086   6.563   0.022  0.00  0.00    -0.010 A 
ATOM      8  C   LIG    1        2.276   5.835   0.001  0.00  0.00    +0.210 A 
ATOM      9  N   LIG    1        2.282   4.524  -0.006  0.00  0.00    -0.470 NA
ATOM     10 CL   LIG    1        3.788   6.688  -0.016  0.00  0.00    -0.020 Cl
ATOM     11  C   LIG    1        1.142   3.823   0.006  0.00  0.00    +0.150 A 
ATOM     12  C   LIG    1        1.155   2.418   0.004  0.00  0.00    +0.070 A 
ENDROOT
TORSDOF 0
ENDMDL
MODEL       82
REMARK  Name = ZINC000039309991
REMARK                            x       y       z     vdW  Elec       q    Type
REMARK                         _______ _______ _______ _____ _____    ______ ____
ROOT
ATOM      1 CL   LIG    1        0.002  -0.004   0.002  0.00  0.00    -0.070 Cl
ATOM      2  C   LIG    1       -0.021   1.732   0.012  0.00  0.00    -0.040 A 
ATOM      3  C   LIG    1       -1.230   2.406   0.033  0.00  0.00    +0.050 A 
ATOM      4  C   LIG    1       -1.252   3.787   0.040  0.00  0.00    +0.050 A 
ATOM      5  C   LIG    1       -0.059   4.499   0.026  0.00  0.00    -0.080 A 
ATOM      6  C   LIG    1        1.153   3.819   0.006  0.00  0.00    +0.010 A 
ATOM      7  C   LIG    1        1.168   2.439   0.004  0.00  0.00    +0.050 A 
ENDROOT
BRANCH   5   8
ATOM      8  S   LIG    1       -0.083   6.261   0.036  0.00  0.00    -0.050 S 
BRANCH   8   9
ATOM      9  C   LIG    1        1.679   6.693   0.013  0.00  0.00    -0.040 C 
ATOM     10  C   LIG    1        2.204   7.453  -1.206  0.00  0.00    +0.050 C 
ATOM     11  C   LIG    1        2.045   8.174   0.134  0.00  0.00    +0.070 C 
ENDBRANCH   8   9
ENDBRANCH   5   8
TORSDOF 2
ENDMDL
MODEL       83
REMARK  Name = ZINC000032299962
REMARK                            x       y       z     vdW  Elec       q    Type
REMARK                         _______ _______ _______ _____ _____    ______ ____
ROOT
ATOM      1 CL   LIG    1        0.002  -0.004   0.002  0.00  0.00    -0.050 Cl
ATOM      2  C   LIG    1       -0.021   1.732   0.012  0.00  0.00    -0.030 A 
ATOM      3  C   LIG    1       -1.244   2.401   0.033  0.00  0.00    +0.050 A 
ATOM      4  C   LIG    1       -1.299   3.763   0.041  0.00  0.00    +0.060 A 
ATOM      5  C   LIG    1       -0.108   4.501   0.029  0.00  0.00    -0.020 A 
ATOM      6  C   LIG    1       -0.098   5.909   0.037  0.00  0.00    +0.000 A 
ATOM      7  C   LIG    1        1.101   6.554   0.024  0.00  0.00    +0.270 A 
ATOM      8  N   LIG    1        2.252   5.895   0.003  0.00  0.00    -0.470 NA
ATOM      9  C   LIG    1        2.320   4.583  -0.005  0.00  0.00    +0.220 A 
ATOM     10 CL   LIG    1        3.865   3.792  -0.032  0.00  0.00    -0.010 Cl
ATOM     11  C   LIG    1        1.138   3.821   0.007  0.00  0.00    -0.090 A 
ATOM     12  C   LIG    1        1.156   2.419   0.004  0.00  0.00    +0.070 A 
ENDROOT
TORSDOF 0
ENDMDL
MODEL       84
REMARK  Name = ZINC000075840536
REMARK                            x       y       z     vdW  Elec       q    Type
REMARK                         _______ _______ _______ _____ _____    ______ ____
ROOT
ATOM      1 CL   LIG    1        0.002  -0.004   0.002  0.00  0.00    -0.070 Cl
ATOM      2  C   LIG    1       -0.021   1.732   0.012  0.00  0.00    -0.040 A 
ATOM      3  C   LIG    1       -1.229   2.407   0.033  0.00  0.00    +0.020 A 
ATOM      4  C   LIG    1       -1.247   3.789   0.040  0.00  0.00    +0.020 A 
ATOM      5  C   LIG    1       -0.059   4.497   0.026  0.00  0.00    -0.070 A 
ATOM      6  C   LIG    1        1.147   3.822   0.006  0.00  0.00    +0.030 A 
ATOM      7  C   LIG    1        1.167   2.440   0.004  0.00  0.00    +0.020 A 
ENDROOT
BRANCH   5   8
ATOM      8  C   LIG    1       -0.079   6.003   0.034  0.00  0.00    +0.020 C 
ATOM      9  C   LIG    1        0.767   6.551   1.210  0.00  0.00    +0.020 C 
ATOM     10  C   LIG    1        1.135   7.977   0.731  0.00  0.00    +0.010 C 
ATOM     11  C   LIG    1        1.390   7.814  -0.782  0.00  0.00    -0.010 C 
ATOM     12  C   LIG    1        0.617   6.559  -1.225  0.00  0.00    +0.020 C 
ENDBRANCH   5   8
TORSDOF 1
ENDMDL
MODEL       85
REMARK  Name = ZINC000096024730
REMARK                            x       y       z     vdW  Elec       q    Type
REMARK                         _______ _______ _______ _____ _____    ______ ____
ROOT
ATOM      1  C   LIG    1       -3.120  -2.767   0.017  0.00  0.00    -0.080 A 
ATOM      2  C   LIG    1       -4.082  -1.765   0.026  0.00  0.00    +0.010 A 
ATOM      3  C   LIG    1       -5.423  -2.097   0.036  0.00  0.00    +0.050 A 
ATOM      4  C   LIG    1       -5.808  -3.426   0.039  0.00  0.00    -0.040 A 
ATOM      5  C   LIG    1       -4.851  -4.427   0.029  0.00  0.00    +0.050 A 
ATOM      6 CL   LIG    1       -7.494  -3.840   0.052  0.00  0.00    -0.070 Cl
ATOM      7  C   LIG    1       -3.510  -4.101   0.013  0.00  0.00    +0.050 A 
ENDROOT
BRANCH   1   8
ATOM      8  S   LIG    1       -1.409  -2.348   0.003  0.00  0.00    -0.110 S 
BRANCH   8   9
ATOM      9  C   LIG    1       -1.433  -0.534   0.013  0.00  0.00    +0.070 C 
BRANCH   9  11
ATOM     10  C   LIG    1       -0.019   1.526   0.010  0.00  0.00    +0.030 C 
ATOM     11  C   LIG    1        0.002  -0.004   0.002  0.00  0.00    +0.030 C 
ENDBRANCH   9  11
ENDBRANCH   8   9
ENDBRANCH   1   8
TORSDOF 3
ENDMDL
MODEL       86
REMARK  Name = ZINC000016124161
REMARK                            x       y       z     vdW  Elec       q    Type
REMARK                         _______ _______ _______ _____ _____    ______ ____
ROOT
ATOM      1 CL   LIG    1        0.002  -0.004   0.002  0.00  0.00    -0.040 Cl
ATOM      2  C   LIG    1       -0.021   1.732   0.012  0.00  0.00    -0.030 A 
ATOM      3  C   LIG    1       -1.244   2.401   0.033  0.00  0.00    +0.060 A 
ATOM      4  C   LIG    1       -1.299   3.763   0.041  0.00  0.00    +0.060 A 
ATOM      5  C   LIG    1       -0.109   4.502   0.028  0.00  0.00    -0.010 A 
ATOM      6  C   LIG    1       -0.100   5.909   0.036  0.00  0.00    +0.000 A 
ATOM      7  C   LIG    1        1.099   6.555   0.023  0.00  0.00    +0.250 A 
ATOM      8  N   LIG    1        2.249   5.896   0.003  0.00  0.00    -0.480 NA
ATOM      9  C   LIG    1        2.317   4.585  -0.005  0.00  0.00    +0.330 A 
ATOM     10  C   LIG    1        1.138   3.823   0.007  0.00  0.00    -0.100 A 
ATOM     11  C   LIG    1        1.157   2.419   0.004  0.00  0.00    +0.000 A 
ATOM     12 CL   LIG    1        2.668   1.565  -0.016  0.00  0.00    -0.030 Cl
ENDROOT
TORSDOF 0
ENDMDL
MODEL       87
REMARK  Name = ZINC000016697568
REMARK                            x       y       z     vdW  Elec       q    Type
REMARK                         _______ _______ _______ _____ _____    ______ ____
ROOT
ATOM      1 CL   LIG    1        0.002  -0.004   0.002  0.00  0.00    -0.060 Cl
ATOM      2  C   LIG    1       -0.021   1.732   0.012  0.00  0.00    -0.030 A 
ATOM      3  C   LIG    1       -1.236   2.405   0.033  0.00  0.00    +0.040 A 
ATOM      4  C   LIG    1       -1.264   3.780   0.040  0.00  0.00    +0.070 A 
ATOM      5  C   LIG    1       -0.073   4.511   0.028  0.00  0.00    -0.140 A 
ATOM      6  S   LIG    1        0.201   6.248   0.033  0.00  0.00    +0.100 S 
ATOM      7  C   LIG    1        1.942   6.042   0.007  0.00  0.00    -0.020 A 
ATOM      8  C   LIG    1        2.275   4.767  -0.004  0.00  0.00    +0.030 A 
ATOM      9  C   LIG    1        1.154   3.841   0.007  0.00  0.00    -0.070 A 
ATOM     10  C   LIG    1        1.160   2.430   0.004  0.00  0.00    +0.070 A 
ENDROOT
TORSDOF 0
ENDMDL
MODEL       88
REMARK  Name = ZINC000071482439
REMARK                            x       y       z     vdW  Elec       q    Type
REMARK                         _______ _______ _______ _____ _____    ______ ____
ROOT
ATOM      1 CL   LIG    1        0.002  -0.004   0.002  0.00  0.00    -0.040 Cl
ATOM      2  C   LIG    1       -0.021   1.732   0.012  0.00  0.00    -0.010 A 
ATOM      3  C   LIG    1       -1.244   2.422   0.033  0.00  0.00    -0.100 A 
ATOM      4  C   LIG    1       -1.240   3.842   0.040  0.00  0.00    -0.010 A 
ATOM      5  C   LIG    1       -2.479   4.510   0.062  0.00  0.00    +0.000 A 
ATOM      6  C   LIG    1       -3.621   3.769   0.075  0.00  0.00    +0.270 A 
ATOM      7  N   LIG    1       -3.597   2.443   0.068  0.00  0.00    -0.480 NA
ATOM      8  C   LIG    1       -0.020   4.530   0.026  0.00  0.00    +0.030 A 
ATOM      9  C   LIG    1        1.148   3.828   0.006  0.00  0.00    +0.060 A 
ATOM     10  C   LIG    1       -2.479   1.753   0.048  0.00  0.00    +0.220 A 
ATOM     11 CL   LIG    1       -2.529   0.018   0.038  0.00  0.00    +0.000 Cl
ATOM     12  C   LIG    1        1.147   2.435   0.004  0.00  0.00    +0.040 A 
ENDROOT
TORSDOF 0
ENDMDL
MODEL       89
REMARK  Name = ZINC000089195313
REMARK                            x       y       z     vdW  Elec       q    Type
REMARK                         _______ _______ _______ _____ _____    ______ ____
ROOT
ATOM      1 CL   LIG    1        0.002  -0.004   0.002  0.00  0.00    -0.060 Cl
ATOM      2  C   LIG    1       -0.021   1.732   0.012  0.00  0.00    +0.000 A 
ATOM      3  C   LIG    1       -1.256   2.418   0.033  0.00  0.00    -0.070 A 
ATOM      4  C   LIG    1       -2.607   1.882   0.050  0.00  0.00    +0.030 A 
ATOM      5  C   LIG    1       -3.564   2.789   0.069  0.00  0.00    -0.020 A 
ATOM      6  S   LIG    1       -2.905   4.413   0.068  0.00  0.00    +0.100 S 
ATOM      7  C   LIG    1       -1.251   3.815   0.041  0.00  0.00    -0.130 A 
ATOM      8  C   LIG    1       -0.035   4.506   0.028  0.00  0.00    +0.050 A 
ATOM      9  C   LIG    1        1.155   3.819   0.007  0.00  0.00    +0.050 A 
ATOM     10  C   LIG    1        1.159   2.431   0.004  0.00  0.00    +0.030 A 
ENDROOT
TORSDOF 0
ENDMDL
MODEL       90
REMARK  Name = ZINC000000404471
REMARK                            x       y       z     vdW  Elec       q    Type
REMARK                         _______ _______ _______ _____ _____    ______ ____
ROOT
ATOM      1 CL   LIG    1        0.002  -0.004   0.002  0.00  0.00    -0.030 Cl
ATOM      2  C   LIG    1       -0.021   1.732   0.012  0.00  0.00    -0.020 A 
ATOM      3  C   LIG    1       -1.228   2.407   0.033  0.00  0.00    +0.050 A 
ATOM      4  C   LIG    1       -1.248   3.789   0.040  0.00  0.00    +0.060 A 
ATOM      5  C   LIG    1       -0.061   4.498   0.026  0.00  0.00    +0.050 A 
ATOM      6  C   LIG    1        1.147   3.825   0.005  0.00  0.00    -0.020 A 
ATOM      7 CL   LIG    1        2.638   4.715  -0.012  0.00  0.00    -0.030 Cl
ATOM      8  C   LIG    1        1.168   2.440   0.004  0.00  0.00    -0.030 A 
ATOM      9 CL   LIG    1        2.683   1.594  -0.022  0.00  0.00    -0.030 Cl
ENDROOT
TORSDOF 0
ENDMDL
MODEL       91
REMARK  Name = ZINC000096024749
REMARK                            x       y       z     vdW  Elec       q    Type
REMARK                         _______ _______ _______ _____ _____    ______ ____
ROOT
ATOM      1  C   LIG    1        1.645  -2.717   2.708  0.00  0.00    -0.070 A 
ATOM      2  C   LIG    1        2.108  -1.700   3.534  0.00  0.00    +0.000 A 
ATOM      3  C   LIG    1        2.795  -2.011   4.691  0.00  0.00    +0.050 A 
ATOM      4  C   LIG    1        3.023  -3.333   5.028  0.00  0.00    +0.020 A 
ATOM      5  C   LIG    1        2.564  -4.349   4.208  0.00  0.00    -0.020 A 
ATOM      6 CL   LIG    1        2.853  -6.006   4.635  0.00  0.00    -0.060 Cl
ATOM      7  C   LIG    1        1.870  -4.045   3.052  0.00  0.00    +0.050 A 
ENDROOT
BRANCH   1   8
ATOM      8  S   LIG    1        0.767  -2.325   1.232  0.00  0.00    -0.110 S 
BRANCH   8   9
ATOM      9  C   LIG    1        0.742  -0.511   1.242  0.00  0.00    +0.070 C 
BRANCH   9  11
ATOM     10  C   LIG    1       -0.019   1.526   0.010  0.00  0.00    +0.030 C 
ATOM     11  C   LIG    1        0.002  -0.004   0.002  0.00  0.00    +0.030 C 
ENDBRANCH   9  11
ENDBRANCH   8   9
ENDBRANCH   1   8
TORSDOF 3
ENDMDL
MODEL       92
REMARK  Name = ZINC000001734732
REMARK                            x       y       z     vdW  Elec       q    Type
REMARK                         _______ _______ _______ _____ _____    ______ ____
ROOT
ATOM      1 CL   LIG    1        0.002  -0.004   0.002  0.00  0.00    -0.030 Cl
ATOM      2  C   LIG    1       -0.021   1.732   0.012  0.00  0.00    +0.020 A 
ATOM      3  C   LIG    1       -1.204   2.419   0.032  0.00  0.00    -0.010 A 
ATOM      4  C   LIG    1       -1.198   3.811   0.040  0.00  0.00    +0.320 A 
ATOM      5  N   LIG    1       -0.081   4.497   0.027  0.00  0.00    -0.470 NA
ATOM      6  C   LIG    1        1.109   3.888   0.007  0.00  0.00    +0.150 A 
ATOM      7  C   LIG    1        2.304   4.628  -0.006  0.00  0.00    +0.060 A 
ATOM      8  C   LIG    1        3.501   3.981  -0.026  0.00  0.00    +0.060 A 
ATOM      9  C   LIG    1        3.566   2.590  -0.035  0.00  0.00    +0.040 A 
ATOM     10  C   LIG    1        2.429   1.837  -0.023  0.00  0.00    -0.020 A 
ATOM     11 CL   LIG    1        2.529   0.104  -0.033  0.00  0.00    -0.040 Cl
ATOM     12  C   LIG    1        1.177   2.472   0.004  0.00  0.00    -0.100 A 
ENDROOT
TORSDOF 0
ENDMDL
MODEL       93
REMARK  Name = ZINC000082865269
REMARK                            x       y       z     vdW  Elec       q    Type
REMARK                         _______ _______ _______ _____ _____    ______ ____
ROOT
ATOM      1 CL   LIG    1        0.109   0.051  -0.996  0.00  0.00    -0.070 Cl
ATOM      2  C   LIG    1        0.048   1.760  -0.695  0.00  0.00    +0.000 A 
ATOM      3  C   LIG    1       -1.171   2.416  -0.680  0.00  0.00    -0.010 A 
ATOM      4  C   LIG    1       -1.222   3.777  -0.440  0.00  0.00    +0.070 A 
ATOM      5  C   LIG    1       -0.057   4.484  -0.214  0.00  0.00    -0.010 A 
ATOM      6  C   LIG    1        1.166   3.829  -0.229  0.00  0.00    +0.150 A 
ATOM      7  C   LIG    1        1.216   2.463  -0.464  0.00  0.00    -0.070 A 
ENDROOT
BRANCH   6   8
ATOM      8  O   LIG    1        2.313   4.523  -0.007  0.00  0.00    -0.300 OA
BRANCH   8   9
ATOM      9  C   LIG    1        3.522   3.767   0.083  0.00  0.00    +0.150 C 
ATOM     10  C   LIG    1        4.161   3.599  -1.318  0.00  0.00    +0.000 C 
ATOM     11  C   LIG    1        5.652   3.341  -0.985  0.00  0.00    +0.020 C 
ATOM     12  C   LIG    1        5.937   4.269   0.214  0.00  0.00    +0.020 C 
ATOM     13  C   LIG    1        4.583   4.540   0.893  0.00  0.00    +0.030 C 
ENDBRANCH   8   9
ENDBRANCH   6   8
TORSDOF 2
ENDMDL
MODEL       94
REMARK  Name = ZINC000019920306
REMARK                            x       y       z     vdW  Elec       q    Type
REMARK                         _______ _______ _______ _____ _____    ______ ____
ROOT
ATOM      1 CL   LIG    1        0.002  -0.004   0.002  0.00  0.00    -0.070 Cl
ATOM      2  C   LIG    1       -0.021   1.732   0.012  0.00  0.00    +0.010 A 
ATOM      3  C   LIG    1       -1.229   2.407   0.033  0.00  0.00    -0.040 A 
ATOM      4  C   LIG    1       -1.252   3.789   0.040  0.00  0.00    +0.070 A 
ATOM      5  C   LIG    1       -0.069   4.501   0.027  0.00  0.00    -0.060 A 
ATOM      6  C   LIG    1        1.146   3.827   0.006  0.00  0.00    +0.230 A 
ATOM      7  C   LIG    1        1.167   2.439   0.004  0.00  0.00    -0.060 A 
ENDROOT
BRANCH   6   8
ATOM      8  N   LIG    1        2.344   4.545  -0.007  0.00  0.00    -0.740 N 
ATOM      9  H   LIG    1        2.329   5.515  -0.002  0.00  0.00    +0.400 HD
BRANCH   8  10
ATOM     10  C   LIG    1        3.624   3.833  -0.030  0.00  0.00    +0.220 C 
ATOM     11  C   LIG    1        4.039   3.535  -1.486  0.00  0.00    +0.000 C 
ATOM     12  C   LIG    1        4.989   4.701  -1.855  0.00  0.00    +0.020 C 
ATOM     13  C   LIG    1        5.779   4.928  -0.542  0.00  0.00    +0.010 C 
ATOM     14  C   LIG    1        4.731   4.718   0.570  0.00  0.00    +0.010 C 
ENDBRANCH   8  10
ENDBRANCH   6   8
TORSDOF 2
ENDMDL
MODEL       95
REMARK  Name = ZINC000261494252
REMARK                            x       y       z     vdW  Elec       q    Type
REMARK                         _______ _______ _______ _____ _____    ______ ____
ROOT
ATOM      1 CL   LIG    1        0.002  -0.004   0.002  0.00  0.00    -0.060 Cl
ATOM      2  C   LIG    1       -0.021   1.732   0.012  0.00  0.00    -0.010 A 
ATOM      3  C   LIG    1       -1.230   2.407   0.033  0.00  0.00    +0.020 A 
ATOM      4  C   LIG    1       -1.252   3.790   0.040  0.00  0.00    +0.050 A 
ATOM      5  C   LIG    1       -0.070   4.502   0.026  0.00  0.00    +0.040 A 
ATOM      6  C   LIG    1        1.146   3.828   0.005  0.00  0.00    -0.070 A 
ATOM      7  C   LIG    1        1.166   2.438   0.004  0.00  0.00    +0.000 A 
ENDROOT
BRANCH   6   8
ATOM      8  S   LIG    1        2.657   4.733  -0.012  0.00  0.00    -0.090 S 
BRANCH   8   9
ATOM      9  C   LIG    1        3.915   3.426  -0.037  0.00  0.00    +0.100 C 
BRANCH   9  10
ATOM     10  C   LIG    1        5.308   4.060  -0.054  0.00  0.00    -0.030 C 
ATOM     11  C   LIG    1        6.218   3.797   1.147  0.00  0.00    +0.030 C 
ATOM     12  C   LIG    1        6.509   3.122  -0.194  0.00  0.00    +0.030 C 
ENDBRANCH   9  10
ENDBRANCH   8   9
ENDBRANCH   6   8
TORSDOF 3
ENDMDL
MODEL       96
REMARK  Name = ZINC000001692678
REMARK                            x       y       z     vdW  Elec       q    Type
REMARK                         _______ _______ _______ _____ _____    ______ ____
ROOT
ATOM      1 CL   LIG    1        0.002  -0.004   0.002  0.00  0.00    -0.050 Cl
ATOM      2  C   LIG    1       -0.021   1.732   0.012  0.00  0.00    -0.030 A 
ATOM      3  C   LIG    1       -1.242   2.422   0.033  0.00  0.00    -0.010 A 
ATOM      4  C   LIG    1       -2.481   1.756   0.048  0.00  0.00    +0.000 A 
ATOM      5  C   LIG    1       -3.623   2.497   0.068  0.00  0.00    +0.270 A 
ATOM      6  N   LIG    1       -3.597   3.823   0.075  0.00  0.00    -0.470 NA
ATOM      7  C   LIG    1       -2.479   4.512   0.062  0.00  0.00    +0.220 A 
ATOM      8 CL   LIG    1       -2.526   6.248   0.072  0.00  0.00    -0.010 Cl
ATOM      9  C   LIG    1       -1.244   3.841   0.040  0.00  0.00    -0.090 A 
ATOM     10  C   LIG    1       -0.022   4.530   0.026  0.00  0.00    +0.070 A 
ATOM     11  C   LIG    1        1.145   3.828   0.006  0.00  0.00    +0.040 A 
ATOM     12  C   LIG    1        1.147   2.435   0.004  0.00  0.00    +0.060 A 
ENDROOT
TORSDOF 0
ENDMDL
MODEL       97
REMARK  Name = ZINC000019942546
REMARK                            x       y       z     vdW  Elec       q    Type
REMARK                         _______ _______ _______ _____ _____    ______ ____
ROOT
ATOM      1 CL   LIG    1        0.002  -0.004   0.002  0.00  0.00    -0.080 Cl
ATOM      2  C   LIG    1       -0.021   1.732   0.012  0.00  0.00    -0.120 A 
ATOM      3  C   LIG    1       -1.227   2.407   0.033  0.00  0.00    +0.070 A 
ATOM      4  C   LIG    1       -1.246   3.790   0.040  0.00  0.00    -0.040 A 
ATOM      5  C   LIG    1       -0.060   4.501   0.027  0.00  0.00    +0.060 A 
ATOM      6  C   LIG    1        1.149   3.832   0.005  0.00  0.00    -0.060 A 
ATOM      7  C   LIG    1        1.172   2.444   0.004  0.00  0.00    +0.230 A 
ENDROOT
BRANCH   7   8
ATOM      8  N   LIG    1        2.393   1.765  -0.017  0.00  0.00    -0.730 N 
ATOM      9  H   LIG    1        2.409   0.795  -0.018  0.00  0.00    +0.400 HD
BRANCH   8  10
ATOM     10  C   LIG    1        3.650   2.517  -0.038  0.00  0.00    +0.220 C 
ATOM     11  C   LIG    1        4.100   2.835   1.403  0.00  0.00    +0.000 C 
ATOM     12  C   LIG    1        5.098   1.702   1.748  0.00  0.00    +0.020 C 
ATOM     13  C   LIG    1        5.853   1.493   0.411  0.00  0.00    +0.010 C 
ATOM     14  C   LIG    1        4.765   1.664  -0.668  0.00  0.00    +0.020 C 
ENDBRANCH   8  10
ENDBRANCH   7   8
TORSDOF 2
ENDMDL
MODEL       98
REMARK  Name = ZINC000003199655
REMARK                            x       y       z     vdW  Elec       q    Type
REMARK                         _______ _______ _______ _____ _____    ______ ____
ROOT
ATOM      1 CL   LIG    1        0.002  -0.004   0.002  0.00  0.00    -0.060 Cl
ATOM      2  C   LIG    1       -0.021   1.732   0.012  0.00  0.00    +0.000 A 
ATOM      3  C   LIG    1       -1.243   2.413   0.033  0.00  0.00    -0.140 A 
ATOM      4  S   LIG    1       -2.893   1.803   0.054  0.00  0.00    +0.110 S 
ATOM      5  C   LIG    1       -3.563   3.422   0.072  0.00  0.00    -0.020 A 
ATOM      6  C   LIG    1       -2.613   4.337   0.063  0.00  0.00    +0.030 A 
ATOM      7  C   LIG    1       -1.258   3.810   0.040  0.00  0.00    -0.070 A 
ATOM      8  C   LIG    1       -0.029   4.504   0.026  0.00  0.00    +0.060 A 
ATOM      9  C   LIG    1        1.149   3.822   0.005  0.00  0.00    +0.030 A 
ATOM     10  C   LIG    1        1.162   2.434   0.004  0.00  0.00    +0.050 A 
ENDROOT
TORSDOF 0
ENDMDL
MODEL       99
REMARK  Name = ZINC000012649586
REMARK                            x       y       z     vdW  Elec       q    Type
REMARK                         _______ _______ _______ _____ _____    ______ ____
ROOT
ATOM      1  C   LIG    1        1.250   1.962   0.001  0.00  0.00    -0.190 A 
ATOM      2  C   LIG    1        2.471   1.286   0.085  0.00  0.00    +0.070 A 
ATOM      3  C   LIG    1        3.652   1.998   0.076  0.00  0.00    -0.010 A 
ATOM      4  C   LIG    1        3.630   3.379  -0.015  0.00  0.00    +0.050 A 
ATOM      5  C   LIG    1        2.425   4.055  -0.099  0.00  0.00    +0.000 A 
ATOM      6  C   LIG    1        1.236   3.357  -0.097  0.00  0.00    -0.020 A 
ENDROOT
BRANCH   6   7
ATOM      7  C   LIG    1       -0.074   4.095  -0.188  0.00  0.00    +0.020 C 
ATOM      8  C   LIG    1       -0.151   5.137   0.929  0.00  0.00    +0.030 C 
ATOM      9  C   LIG    1       -1.482   5.887   0.836  0.00  0.00    +0.000 C 
ATOM     10  C   LIG    1       -1.580   6.586  -0.521  0.00  0.00    +0.000 C 
ATOM     11  C   LIG    1       -1.503   5.544  -1.638  0.00  0.00    +0.000 C 
ATOM     12  C   LIG    1       -0.172   4.794  -1.546  0.00  0.00    +0.020 C 
ENDBRANCH   6   7
BRANCH   1  14
ATOM     13  O   LIG    1        0.002  -0.004  -0.007  0.00  0.00    -0.460 OA
ATOM     14  C   LIG    1       -0.014   1.208   0.009  0.00  0.00    +0.490 C 
ENDBRANCH   1  14
TORSDOF 2
ENDMDL
MODEL      100
REMARK  Name = ZINC000002571396
REMARK                            x       y       z     vdW  Elec       q    Type
REMARK                         _______ _______ _______ _____ _____    ______ ____
ROOT
ATOM      1 CL   LIG    1        0.002  -0.004   0.002  0.00  0.00    -0.040 Cl
ATOM      2  C   LIG    1       -0.021   1.732   0.012  0.00  0.00    -0.010 A 
ATOM      3  C   LIG    1       -1.208   2.399   0.032  0.00  0.00    +0.060 A 
ATOM      4  C   LIG    1       -1.249   3.792   0.041  0.00  0.00    +0.040 A 
ATOM      5  C   LIG    1       -0.102   4.525   0.029  0.00  0.00    +0.050 A 
ATOM      6  C   LIG    1        1.140   3.871   0.007  0.00  0.00    -0.090 A 
ATOM      7  C   LIG    1        2.349   4.593  -0.005  0.00  0.00    +0.020 A 
ATOM      8  C   LIG    1        3.521   3.888  -0.025  0.00  0.00    -0.010 A 
ATOM      9  C   LIG    1        3.494   2.496  -0.033  0.00  0.00    +0.320 A 
ATOM     10  N   LIG    1        2.366   1.827  -0.022  0.00  0.00    -0.460 NA
ATOM     11 CL   LIG    1        2.353   6.329   0.005  0.00  0.00    -0.040 Cl
ATOM     12  C   LIG    1        1.186   2.455   0.004  0.00  0.00    +0.140 A 
ENDROOT
TORSDOF 0
ENDMDL
MODEL      101
REMARK  Name = ZINC000001690435
REMARK                            x       y       z     vdW  Elec       q    Type
REMARK                         _______ _______ _______ _____ _____    ______ ____
ROOT
ATOM      1 CL   LIG    1        0.002  -0.004   0.002  0.00  0.00    -0.040 Cl
ATOM      2  C   LIG    1       -0.021   1.732   0.012  0.00  0.00    -0.040 A 
ATOM      3  C   LIG    1       -1.142   2.426   0.032  0.00  0.00    -0.010 A 
ATOM      4  S   LIG    1       -0.827   4.151   0.037  0.00  0.00    +0.130 S 
ATOM      5  C   LIG    1        0.914   3.901   0.010  0.00  0.00    -0.140 A 
ATOM      6  C   LIG    1        1.965   4.823   0.000  0.00  0.00    +0.050 A 
ATOM      7  C   LIG    1        3.269   4.386  -0.021  0.00  0.00    +0.050 A 
ATOM      8  C   LIG    1        3.549   3.026  -0.033  0.00  0.00    +0.020 A 
ATOM      9  C   LIG    1        2.541   2.111  -0.024  0.00  0.00    +0.060 A 
ATOM     10  C   LIG    1        1.194   2.531   0.004  0.00  0.00    -0.070 A 
ENDROOT
TORSDOF 0
ENDMDL
MODEL      102
REMARK  Name = ZINC000002548208
REMARK                            x       y       z     vdW  Elec       q    Type
REMARK                         _______ _______ _______ _____ _____    ______ ____
ROOT
ATOM      1 CL   LIG    1        0.002  -0.004   0.002  0.00  0.00    -0.030 Cl
ATOM      2  C   LIG    1       -0.021   1.732   0.012  0.00  0.00    -0.070 A 
ATOM      3  C   LIG    1       -1.242   2.433   0.033  0.00  0.00    -0.010 A 
ATOM      4  C   LIG    1       -2.481   1.777   0.047  0.00  0.00    +0.030 A 
ATOM      5  C   LIG    1       -3.628   2.511   0.068  0.00  0.00    +0.060 A 
ATOM      6  C   LIG    1       -3.589   3.904   0.075  0.00  0.00    +0.030 A 
ATOM      7  C   LIG    1       -2.404   4.574   0.061  0.00  0.00    +0.060 A 
ATOM      8  C   LIG    1       -1.201   3.852   0.040  0.00  0.00    -0.090 A 
ATOM      9  C   LIG    1        0.052   4.488   0.026  0.00  0.00    +0.220 A 
ATOM     10  N   LIG    1        1.151   3.769   0.007  0.00  0.00    -0.470 NA
ATOM     11 CL   LIG    1        0.147   6.221   0.033  0.00  0.00    -0.010 Cl
ATOM     12  C   LIG    1        1.141   2.443   0.004  0.00  0.00    +0.280 A 
ENDROOT
TORSDOF 0
ENDMDL
MODEL      103
REMARK  Name = ZINC000144655702
REMARK                            x       y       z     vdW  Elec       q    Type
REMARK                         _______ _______ _______ _____ _____    ______ ____
ROOT
ATOM      1  C   LIG    1        0.707  -0.490  -1.238  0.00  0.00    -0.090 A 
ATOM      2  C   LIG    1        1.217   0.420  -2.145  0.00  0.00    +0.060 A 
ATOM      3  C   LIG    1        1.864  -0.026  -3.283  0.00  0.00    -0.040 A 
ATOM      4  C   LIG    1        2.002  -1.383  -3.514  0.00  0.00    +0.050 A 
ATOM      5  C   LIG    1        1.493  -2.294  -2.608  0.00  0.00    +0.010 A 
ATOM      6 CL   LIG    1        2.503   1.117  -4.422  0.00  0.00    -0.060 Cl
ATOM      7  C   LIG    1        0.850  -1.849  -1.466  0.00  0.00    +0.110 A 
ATOM      8  F   LIG    1        0.353  -2.738  -0.580  0.00  0.00    -0.130 F 
ENDROOT
BRANCH   1  10
ATOM      9  C   LIG    1       -0.019   1.526   0.010  0.00  0.00    +0.030 C 
ATOM     10  C   LIG    1        0.002  -0.004   0.002  0.00  0.00    -0.030 C 
ATOM     11  C   LIG    1       -1.433  -0.534   0.013  0.00  0.00    +0.030 C 
ATOM     12  C   LIG    1        0.742  -0.511   1.242  0.00  0.00    +0.030 C 
ENDBRANCH   1  10
TORSDOF 1
ENDMDL
MODEL      104
REMARK  Name = ZINC000053765111
REMARK                            x       y       z     vdW  Elec       q    Type
REMARK                         _______ _______ _______ _____ _____    ______ ____
ROOT
ATOM      1  C   LIG    1        1.685  -4.020  -2.397  0.00  0.00    +0.400 C 
ATOM      2  O   LIG    1        1.166  -4.635  -1.490  0.00  0.00    -0.450 OA
ENDROOT
BRANCH   1   3
ATOM      3  C   LIG    1        2.436  -4.739  -3.439  0.00  0.00    -0.170 A 
ATOM      4  C   LIG    1        3.041  -4.033  -4.484  0.00  0.00    +0.060 A 
ATOM      5  C   LIG    1        3.742  -4.714  -5.456  0.00  0.00    +0.000 A 
ATOM      6  C   LIG    1        3.848  -6.093  -5.401  0.00  0.00    +0.040 A 
ATOM      7  C   LIG    1        3.252  -6.799  -4.370  0.00  0.00    +0.000 A 
ATOM      8  C   LIG    1        2.553  -6.132  -3.387  0.00  0.00    +0.070 A 
ENDBRANCH   1   3
BRANCH   1   9
ATOM      9  C   LIG    1        1.562  -2.520  -2.457  0.00  0.00    +0.040 C 
BRANCH   9  10
ATOM     10  C   LIG    1        0.739  -2.027  -1.265  0.00  0.00    +0.000 C 
ATOM     11  C   LIG    1       -0.692  -2.556  -1.380  0.00  0.00    +0.020 C 
BRANCH  10  12
ATOM     12  C   LIG    1        0.718  -0.497  -1.257  0.00  0.00    +0.000 C 
BRANCH  12  14
ATOM     13  C   LIG    1       -0.019   1.526   0.010  0.00  0.00    +0.000 C 
ATOM     14  C   LIG    1        0.002  -0.004   0.002  0.00  0.00    -0.010 C 
ENDBRANCH  12  14
ENDBRANCH  10  12
ENDBRANCH   9  10
ENDBRANCH   1   9
TORSDOF 5
ENDMDL
MODEL      105
REMARK  Name = ZINC000012649743
REMARK                            x       y       z     vdW  Elec       q    Type
REMARK                         _______ _______ _______ _____ _____    ______ ____
ROOT
ATOM      1  C   LIG    1        0.731  -0.503   1.223  0.00  0.00    -0.080 A 
ATOM      2  C   LIG    1        2.098  -0.709   1.173  0.00  0.00    +0.000 A 
ATOM      3  C   LIG    1        2.771  -1.166   2.288  0.00  0.00    +0.020 A 
ATOM      4  C   LIG    1        2.070  -1.420   3.466  0.00  0.00    -0.050 A 
ATOM      5  C   LIG    1        0.693  -1.212   3.510  0.00  0.00    +0.020 A 
ATOM      6  C   LIG    1        0.031  -0.749   2.391  0.00  0.00    +0.000 A 
ENDROOT
BRANCH   4   7
ATOM      7  C   LIG    1        2.788  -1.911   4.668  0.00  0.00    -0.050 A 
ATOM      8  C   LIG    1        4.166  -2.114   4.624  0.00  0.00    +0.030 A 
ATOM      9  C   LIG    1        4.830  -2.570   5.743  0.00  0.00    -0.010 A 
ATOM     10  C   LIG    1        4.128  -2.828   6.912  0.00  0.00    +0.110 A 
ATOM     11  C   LIG    1        2.755  -2.627   6.959  0.00  0.00    -0.010 A 
ATOM     12  C   LIG    1        2.086  -2.166   5.845  0.00  0.00    +0.030 A 
BRANCH  10  13
ATOM     13  O   LIG    1        4.785  -3.277   8.014  0.00  0.00    -0.500 OA
ATOM     14  H   LIG    1        5.106  -2.574   8.594  0.00  0.00    +0.390 HD
ENDBRANCH  10  13
ENDBRANCH   4   7
BRANCH   1  16
ATOM     15  C   LIG    1       -0.019   1.526   0.010  0.00  0.00    +0.030 C 
ATOM     16  C   LIG    1        0.002  -0.004   0.002  0.00  0.00    +0.050 C 
ENDBRANCH   1  16
TORSDOF 3
ENDMDL
MODEL      106
REMARK  Name = ZINC000001601462
REMARK                            x       y       z     vdW  Elec       q    Type
REMARK                         _______ _______ _______ _____ _____    ______ ____
ROOT
ATOM      1  C   LIG    1        1.537  -4.032  -2.468  0.00  0.00    -0.030 C 
ATOM      2  C   LIG    1        2.150  -4.579  -1.175  0.00  0.00    +0.040 C 
ATOM      3  C   LIG    1        2.258  -6.102  -1.269  0.00  0.00    +0.010 C 
ATOM      4  C   LIG    1        3.217  -6.486  -2.397  0.00  0.00    +0.040 C 
ATOM      5  C   LIG    1        2.643  -6.010  -3.736  0.00  0.00    +0.020 C 
ATOM      6  C   LIG    1        2.353  -4.528  -3.641  0.00  0.00    +0.360 C 
ATOM      7  O   LIG    1        2.769  -3.761  -4.476  0.00  0.00    -0.450 OA
ENDROOT
BRANCH   1   8
ATOM      8  C   LIG    1        1.556  -2.502  -2.439  0.00  0.00    +0.040 C 
BRANCH   8   9
ATOM      9  C   LIG    1        0.619  -2.001  -1.338  0.00  0.00    -0.020 C 
ATOM     10  C   LIG    1       -0.825  -2.363  -1.694  0.00  0.00    +0.010 C 
BRANCH   9  11
ATOM     11  C   LIG    1        0.747  -0.482  -1.211  0.00  0.00    +0.000 C 
BRANCH  11  13
ATOM     12  C   LIG    1        0.034   1.523   0.097  0.00  0.00    +0.000 C 
ATOM     13  C   LIG    1       -0.095   0.004  -0.030  0.00  0.00    -0.010 C 
ENDBRANCH  11  13
ENDBRANCH   9  11
ENDBRANCH   8   9
ENDBRANCH   1   8
TORSDOF 4
ENDMDL
MODEL      107
REMARK  Name = ZINC000001601460
REMARK                            x       y       z     vdW  Elec       q    Type
REMARK                         _______ _______ _______ _____ _____    ______ ____
ROOT
ATOM      1  C   LIG    1        1.687  -4.043  -2.396  0.00  0.00    -0.030 C 
ATOM      2  C   LIG    1        2.411  -4.551  -3.648  0.00  0.00    +0.040 C 
ATOM      3  C   LIG    1        2.659  -6.054  -3.517  0.00  0.00    +0.010 C 
ATOM      4  C   LIG    1        3.595  -6.325  -2.337  0.00  0.00    +0.040 C 
ATOM      5  C   LIG    1        2.916  -5.884  -1.037  0.00  0.00    +0.020 C 
ATOM      6  C   LIG    1        2.491  -4.438  -1.177  0.00  0.00    +0.360 C 
ATOM      7  O   LIG    1        2.792  -3.620  -0.341  0.00  0.00    -0.450 OA
ENDROOT
BRANCH   1   8
ATOM      8  C   LIG    1        1.562  -2.520  -2.457  0.00  0.00    +0.040 C 
BRANCH   8   9
ATOM      9  C   LIG    1        0.739  -2.027  -1.265  0.00  0.00    -0.010 C 
ATOM     10  C   LIG    1       -0.692  -2.556  -1.380  0.00  0.00    +0.010 C 
BRANCH   9  11
ATOM     11  C   LIG    1        0.718  -0.497  -1.257  0.00  0.00    +0.010 C 
BRANCH  11  13
ATOM     12  C   LIG    1       -0.019   1.526   0.010  0.00  0.00    +0.000 C 
ATOM     13  C   LIG    1        0.002  -0.004   0.002  0.00  0.00    -0.010 C 
ENDBRANCH  11  13
ENDBRANCH   9  11
ENDBRANCH   8   9
ENDBRANCH   1   8
TORSDOF 4
ENDMDL
MODEL      108
REMARK  Name = ZINC000013146624
REMARK                            x       y       z     vdW  Elec       q    Type
REMARK                         _______ _______ _______ _____ _____    ______ ____
ROOT
ATOM      1  C   LIG    1       -0.018   1.503   0.010  0.00  0.00    +0.110 C 
ATOM      2  C   LIG    1        0.002  -0.004   0.002  0.00  0.00    -0.030 A 
ATOM      3  C   LIG    1        0.006  -0.684  -1.208  0.00  0.00    +0.010 A 
ATOM      4  C   LIG    1        0.025  -2.050  -1.237  0.00  0.00    +0.080 A 
ATOM      5  C   LIG    1        0.040  -2.769  -0.038  0.00  0.00    -0.110 A 
ATOM      6  C   LIG    1        0.061  -4.234  -0.033  0.00  0.00    +0.030 A 
ATOM      7  C   LIG    1        0.077  -4.877   1.161  0.00  0.00    +0.000 A 
ATOM      8  C   LIG    1        0.072  -4.142   2.364  0.00  0.00    +0.340 A 
ATOM      9  N   LIG    1        0.052  -2.798   2.371  0.00  0.00    -0.550 N 
ATOM     10  H   LIG    1        0.050  -2.324   3.217  0.00  0.00    +0.430 HD
ATOM     11  S   LIG    1        0.091  -4.984   3.855  0.00  0.00    -0.600 S 
ATOM     12  C   LIG    1        0.067  -5.009  -1.325  0.00  0.00    +0.130 C 
ATOM     13  C   LIG    1        0.037  -2.083   1.191  0.00  0.00    +0.160 A 
ATOM     14  C   LIG    1        0.023  -0.693   1.196  0.00  0.00    -0.010 A 
ENDROOT
TORSDOF 0
ENDMDL
MODEL      109
REMARK  Name = ZINC000072099237
REMARK                            x       y       z     vdW  Elec       q    Type
REMARK                         _______ _______ _______ _____ _____    ______ ____
ROOT
ATOM      1  C   LIG    1        0.658  -2.030  -1.296  0.00  0.00    -0.020 C 
ATOM      2  C   LIG    1        0.518  -0.507  -1.348  0.00  0.00    +0.010 C 
ENDROOT
BRANCH   1   3
ATOM      3  C   LIG    1        1.273  -2.441   0.043  0.00  0.00    +0.000 C 
BRANCH   3   5
ATOM      4  C   LIG    1        0.925  -2.495   2.516  0.00  0.00    +0.000 C 
ATOM      5  C   LIG    1        0.310  -2.084   1.177  0.00  0.00    -0.010 C 
ENDBRANCH   3   5
ENDBRANCH   1   3
BRANCH   1   6
ATOM      6  C   LIG    1        1.562  -2.498  -2.438  0.00  0.00    +0.010 C 
BRANCH   6   7
ATOM      7  C   LIG    1        1.583  -4.027  -2.478  0.00  0.00    -0.030 C 
ATOM      8  C   LIG    1        0.191  -4.547  -2.842  0.00  0.00    +0.010 C 
BRANCH   7   9
ATOM      9  C   LIG    1        2.593  -4.496  -3.527  0.00  0.00    +0.000 C 
ATOM     10  C   LIG    1        2.706  -6.021  -3.481  0.00  0.00    +0.000 C 
ENDBRANCH   7   9
ENDBRANCH   6   7
ENDBRANCH   1   6
TORSDOF 5
ENDMDL
MODEL      110
REMARK  Name = ZINC000002564066
REMARK                            x       y       z     vdW  Elec       q    Type
REMARK                         _______ _______ _______ _____ _____    ______ ____
ROOT
ATOM      1  C   LIG    1        0.739  -2.027  -1.265  0.00  0.00    -0.020 C 
ATOM      2  C   LIG    1       -0.692  -2.556  -1.380  0.00  0.00    +0.010 C 
ENDROOT
BRANCH   1   3
ATOM      3  C   LIG    1        0.718  -0.497  -1.257  0.00  0.00    +0.000 C 
BRANCH   3   5
ATOM      4  C   LIG    1       -0.019   1.526   0.010  0.00  0.00    +0.000 C 
ATOM      5  C   LIG    1        0.002  -0.004   0.002  0.00  0.00    -0.010 C 
ENDBRANCH   3   5
ENDBRANCH   1   3
BRANCH   1   6
ATOM      6  C   LIG    1        1.562  -2.520  -2.457  0.00  0.00    +0.010 C 
BRANCH   6   7
ATOM      7  C   LIG    1        1.687  -4.043  -2.396  0.00  0.00    -0.030 C 
ATOM      8  C   LIG    1        2.493  -4.439  -1.157  0.00  0.00    +0.010 C 
BRANCH   7   9
ATOM      9  C   LIG    1        2.402  -4.547  -3.652  0.00  0.00    +0.000 C 
ATOM     10  C   LIG    1        2.417  -6.077  -3.651  0.00  0.00    +0.000 C 
ENDBRANCH   7   9
ENDBRANCH   6   7
ENDBRANCH   1   6
TORSDOF 5
ENDMDL
MODEL      111
REMARK  Name = ZINC000019088282
REMARK                            x       y       z     vdW  Elec       q    Type
REMARK                         _______ _______ _______ _____ _____    ______ ____
ROOT
ATOM      1  C   LIG    1        1.199   1.933   0.001  0.00  0.00    -0.340 A 
ATOM      2  C   LIG    1        1.312   3.300   0.013  0.00  0.00    +0.100 A 
ATOM      3  C   LIG    1        2.612   3.736   0.001  0.00  0.00    -0.030 A 
ATOM      4  C   LIG    1        3.538   2.768  -0.019  0.00  0.00    -0.180 A 
ATOM      5  S   LIG    1        2.808   1.225  -0.018  0.00  0.00    +0.260 S 
ENDROOT
BRANCH   4   6
ATOM      6  C   LIG    1        5.025   3.008  -0.035  0.00  0.00    +0.070 C 
ATOM      7  C   LIG    1        5.659   2.366   1.201  0.00  0.00    +0.020 C 
ATOM      8  C   LIG    1        7.169   2.610   1.185  0.00  0.00    +0.010 C 
ATOM      9  C   LIG    1        7.773   1.992  -0.078  0.00  0.00    +0.000 C 
ATOM     10  C   LIG    1        7.139   2.634  -1.313  0.00  0.00    +0.010 C 
ATOM     11  C   LIG    1        5.629   2.390  -1.298  0.00  0.00    +0.020 C 
ENDBRANCH   4   6
BRANCH   1  13
ATOM     12  O   LIG    1        0.002  -0.004   0.002  0.00  0.00    -0.470 OA
ATOM     13  C   LIG    1       -0.014   1.210   0.009  0.00  0.00    +0.520 C 
ENDBRANCH   1  13
TORSDOF 2
ENDMDL
MODEL      112
REMARK  Name = ZINC000019877323
REMARK                            x       y       z     vdW  Elec       q    Type
REMARK                         _______ _______ _______ _____ _____    ______ ____
ROOT
ATOM      1  N   LIG    1       -0.834  -2.537  -1.256  0.00  0.00    -0.740 N 
ATOM      2  H   LIG    1       -0.871  -1.977  -2.047  0.00  0.00    +0.400 HD
ENDROOT
BRANCH   1   3
ATOM      3  C   LIG    1       -0.231  -3.795  -1.317  0.00  0.00    +0.220 A 
ATOM      4  C   LIG    1       -0.183  -4.601  -0.187  0.00  0.00    -0.090 A 
ATOM      5  C   LIG    1        0.415  -5.844  -0.252  0.00  0.00    +0.050 A 
ATOM      6  C   LIG    1        0.965  -6.288  -1.441  0.00  0.00    -0.060 A 
ATOM      7  C   LIG    1        0.919  -5.488  -2.568  0.00  0.00    -0.040 A 
ATOM      8  C   LIG    1        1.520  -5.975  -3.861  0.00  0.00    +0.080 C 
ATOM      9  C   LIG    1        0.318  -4.246  -2.512  0.00  0.00    -0.080 A 
ENDBRANCH   1   3
BRANCH   1  10
ATOM     10  C   LIG    1       -1.413  -2.063   0.004  0.00  0.00    +0.230 C 
ATOM     11  C   LIG    1       -2.841  -2.594   0.141  0.00  0.00    +0.010 C 
BRANCH  10  12
ATOM     12  C   LIG    1       -1.433  -0.534   0.013  0.00  0.00    +0.020 C 
BRANCH  12  14
ATOM     13  C   LIG    1       -0.019   1.526   0.010  0.00  0.00    +0.000 C 
ATOM     14  C   LIG    1        0.002  -0.004   0.002  0.00  0.00    +0.000 C 
ENDBRANCH  12  14
ENDBRANCH  10  12
ENDBRANCH   1  10
TORSDOF 4
ENDMDL
MODEL      113
REMARK  Name = ZINC000019964346
REMARK                            x       y       z     vdW  Elec       q    Type
REMARK                         _______ _______ _______ _____ _____    ______ ____
ROOT
ATOM      1  C   LIG    1       -0.929  -3.817   0.876  0.00  0.00    +0.220 A 
ATOM      2  C   LIG    1        0.046  -4.600   0.273  0.00  0.00    -0.080 A 
ATOM      3  C   LIG    1       -0.278  -5.854  -0.208  0.00  0.00    +0.050 A 
ATOM      4  C   LIG    1       -1.570  -6.329  -0.088  0.00  0.00    -0.060 A 
ATOM      5  C   LIG    1       -2.544  -5.552   0.512  0.00  0.00    -0.040 A 
ATOM      6  C   LIG    1       -3.952  -6.074   0.640  0.00  0.00    +0.090 C 
ATOM      7  C   LIG    1       -2.226  -4.300   1.000  0.00  0.00    -0.170 A 
ATOM      8  C   LIG    1       -3.287  -3.453   1.653  0.00  0.00    +0.080 C 
ENDROOT
BRANCH   1   9
ATOM      9  N   LIG    1       -0.605  -2.548   1.364  0.00  0.00    -0.740 N 
ATOM     10  H   LIG    1       -1.286  -2.004   1.789  0.00  0.00    +0.400 HD
BRANCH   9  11
ATOM     11  C   LIG    1        0.763  -2.041   1.233  0.00  0.00    +0.230 C 
ATOM     12  C   LIG    1        1.608  -2.546   2.404  0.00  0.00    +0.010 C 
BRANCH  11  13
ATOM     13  C   LIG    1        0.742  -0.511   1.242  0.00  0.00    +0.020 C 
BRANCH  13  15
ATOM     14  C   LIG    1       -0.019   1.526   0.010  0.00  0.00    +0.000 C 
ATOM     15  C   LIG    1        0.002  -0.004   0.002  0.00  0.00    +0.000 C 
ENDBRANCH  13  15
ENDBRANCH  11  13
ENDBRANCH   9  11
ENDBRANCH   1   9
TORSDOF 4
ENDMDL
MODEL      114
REMARK  Name = ZINC000061117395
REMARK                            x       y       z     vdW  Elec       q    Type
REMARK                         _______ _______ _______ _____ _____    ______ ____
ROOT
ATOM      1  C   LIG    1       -0.230  -3.796  -1.318  0.00  0.00    +0.220 A 
ATOM      2  C   LIG    1       -0.182  -4.601  -0.187  0.00  0.00    -0.050 A 
ATOM      3  C   LIG    1        0.415  -5.845  -0.251  0.00  0.00    +0.030 A 
ATOM      4  C   LIG    1        0.967  -6.289  -1.440  0.00  0.00    +0.030 A 
ATOM      5  C   LIG    1        0.920  -5.488  -2.569  0.00  0.00    -0.070 A 
ATOM      6  C   LIG    1        1.520  -5.975  -3.863  0.00  0.00    +0.100 C 
ATOM      7  F   LIG    1        1.551  -7.506  -1.500  0.00  0.00    -0.150 F 
ATOM      8  C   LIG    1        0.319  -4.247  -2.512  0.00  0.00    -0.040 A 
ENDROOT
BRANCH   1   9
ATOM      9  N   LIG    1       -0.834  -2.537  -1.256  0.00  0.00    -0.740 N 
ATOM     10  H   LIG    1       -0.871  -1.977  -2.047  0.00  0.00    +0.400 HD
BRANCH   9  11
ATOM     11  C   LIG    1       -1.413  -2.063   0.004  0.00  0.00    +0.230 C 
ATOM     12  C   LIG    1       -2.841  -2.594   0.141  0.00  0.00    +0.010 C 
BRANCH  11  13
ATOM     13  C   LIG    1       -1.433  -0.534   0.013  0.00  0.00    +0.020 C 
BRANCH  13  15
ATOM     14  C   LIG    1       -0.019   1.526   0.010  0.00  0.00    +0.000 C 
ATOM     15  C   LIG    1        0.002  -0.004   0.002  0.00  0.00    +0.000 C 
ENDBRANCH  13  15
ENDBRANCH  11  13
ENDBRANCH   9  11
ENDBRANCH   1   9
TORSDOF 4
ENDMDL
MODEL      115
REMARK  Name = ZINC000019961484
REMARK                            x       y       z     vdW  Elec       q    Type
REMARK                         _______ _______ _______ _____ _____    ______ ____
ROOT
ATOM      1  C   LIG    1       -0.230  -3.796  -1.318  0.00  0.00    +0.210 A 
ATOM      2  C   LIG    1       -0.182  -4.601  -0.187  0.00  0.00    -0.040 A 
ATOM      3  C   LIG    1        0.415  -5.845  -0.251  0.00  0.00    +0.020 A 
ATOM      4  C   LIG    1        0.967  -6.289  -1.440  0.00  0.00    +0.040 A 
ATOM      5  C   LIG    1        0.920  -5.488  -2.569  0.00  0.00    +0.020 A 
ATOM      6  F   LIG    1        1.551  -7.506  -1.500  0.00  0.00    -0.150 F 
ATOM      7  C   LIG    1        0.319  -4.247  -2.512  0.00  0.00    -0.140 A 
ATOM      8  C   LIG    1        0.268  -3.375  -3.740  0.00  0.00    +0.090 C 
ENDROOT
BRANCH   1   9
ATOM      9  N   LIG    1       -0.834  -2.537  -1.256  0.00  0.00    -0.740 N 
ATOM     10  H   LIG    1       -0.871  -1.977  -2.047  0.00  0.00    +0.400 HD
BRANCH   9  11
ATOM     11  C   LIG    1       -1.413  -2.063   0.004  0.00  0.00    +0.230 C 
ATOM     12  C   LIG    1       -2.841  -2.594   0.141  0.00  0.00    +0.010 C 
BRANCH  11  13
ATOM     13  C   LIG    1       -1.433  -0.534   0.013  0.00  0.00    +0.020 C 
BRANCH  13  15
ATOM     14  C   LIG    1       -0.019   1.526   0.010  0.00  0.00    +0.000 C 
ATOM     15  C   LIG    1        0.002  -0.004   0.002  0.00  0.00    +0.000 C 
ENDBRANCH  13  15
ENDBRANCH  11  13
ENDBRANCH   9  11
ENDBRANCH   1   9
TORSDOF 4
ENDMDL
MODEL      116
REMARK  Name = ZINC000043319713
REMARK                            x       y       z     vdW  Elec       q    Type
REMARK                         _______ _______ _______ _____ _____    ______ ____
ROOT
ATOM      1  C   LIG    1        1.320  -3.783   0.385  0.00  0.00    +0.250 A 
ATOM      2  C   LIG    1        0.330  -4.594  -0.155  0.00  0.00    -0.080 A 
ATOM      3  C   LIG    1        0.105  -5.852   0.369  0.00  0.00    +0.080 A 
ATOM      4  C   LIG    1        0.865  -6.306   1.430  0.00  0.00    -0.080 A 
ATOM      5  C   LIG    1        1.854  -5.501   1.972  0.00  0.00    +0.140 A 
ATOM      6  F   LIG    1        2.595  -5.948   3.010  0.00  0.00    -0.140 F 
ATOM      7  C   LIG    1        2.087  -4.243   1.448  0.00  0.00    -0.200 A 
ATOM      8  C   LIG    1        3.163  -3.367   2.036  0.00  0.00    +0.100 C 
ENDROOT
BRANCH   1   9
ATOM      9  N   LIG    1        1.548  -2.511  -0.144  0.00  0.00    -0.740 N 
ATOM     10  H   LIG    1        2.243  -1.947   0.231  0.00  0.00    +0.400 HD
BRANCH   9  11
ATOM     11  C   LIG    1        0.739  -2.027  -1.265  0.00  0.00    +0.230 C 
ATOM     12  C   LIG    1        1.343  -2.522  -2.581  0.00  0.00    +0.020 C 
BRANCH  11  13
ATOM     13  C   LIG    1        0.718  -0.497  -1.257  0.00  0.00    +0.020 C 
BRANCH  13  15
ATOM     14  C   LIG    1       -0.019   1.526   0.010  0.00  0.00    +0.000 C 
ATOM     15  C   LIG    1        0.002  -0.004   0.002  0.00  0.00    +0.000 C 
ENDBRANCH  13  15
ENDBRANCH  11  13
ENDBRANCH   9  11
ENDBRANCH   1   9
TORSDOF 4
ENDMDL
MODEL      117
REMARK  Name = ZINC000020471599
REMARK                            x       y       z     vdW  Elec       q    Type
REMARK                         _______ _______ _______ _____ _____    ______ ____
ROOT
ATOM      1  C   LIG    1        1.320  -3.785   0.385  0.00  0.00    +0.200 A 
ATOM      2  C   LIG    1        0.330  -4.595  -0.154  0.00  0.00    -0.050 A 
ATOM      3  C   LIG    1        0.107  -5.854   0.371  0.00  0.00    -0.050 A 
ATOM      4  C   LIG    1        0.868  -6.308   1.432  0.00  0.00    -0.020 A 
ATOM      5  C   LIG    1        1.855  -5.504   1.973  0.00  0.00    +0.030 A 
ATOM      6  C   LIG    1       -0.968  -6.733  -0.215  0.00  0.00    +0.090 C 
ATOM      7  C   LIG    1        2.088  -4.246   1.450  0.00  0.00    +0.010 A 
ATOM      8  F   LIG    1        3.052  -3.461   1.978  0.00  0.00    -0.150 F 
ENDROOT
BRANCH   1   9
ATOM      9  N   LIG    1        1.548  -2.511  -0.144  0.00  0.00    -0.740 N 
ATOM     10  H   LIG    1        2.243  -1.947   0.231  0.00  0.00    +0.400 HD
BRANCH   9  11
ATOM     11  C   LIG    1        0.739  -2.027  -1.265  0.00  0.00    +0.230 C 
ATOM     12  C   LIG    1        1.343  -2.522  -2.581  0.00  0.00    +0.020 C 
BRANCH  11  13
ATOM     13  C   LIG    1        0.718  -0.497  -1.257  0.00  0.00    +0.020 C 
BRANCH  13  15
ATOM     14  C   LIG    1       -0.019   1.526   0.010  0.00  0.00    +0.000 C 
ATOM     15  C   LIG    1        0.002  -0.004   0.002  0.00  0.00    +0.000 C 
ENDBRANCH  13  15
ENDBRANCH  11  13
ENDBRANCH   9  11
ENDBRANCH   1   9
TORSDOF 4
ENDMDL
MODEL      118
REMARK  Name = ZINC000019737278
REMARK                            x       y       z     vdW  Elec       q    Type
REMARK                         _______ _______ _______ _____ _____    ______ ____
ROOT
ATOM      1  C   LIG    1        1.492  -2.540   2.454  0.00  0.00    -0.050 A 
ATOM      2  C   LIG    1        2.860  -2.745   2.403  0.00  0.00    +0.000 A 
ATOM      3  C   LIG    1        3.534  -3.202   3.516  0.00  0.00    +0.070 A 
ATOM      4  C   LIG    1        2.831  -3.458   4.698  0.00  0.00    -0.180 A 
ATOM      5  C   LIG    1        1.450  -3.248   4.742  0.00  0.00    +0.060 A 
ATOM      6  C   LIG    1        0.791  -2.785   3.622  0.00  0.00    +0.000 A 
ENDROOT
BRANCH   4   7
ATOM      7  C   LIG    1        3.543  -3.946   5.890  0.00  0.00    +0.390 C 
ATOM      8  O   LIG    1        4.741  -4.127   5.849  0.00  0.00    -0.450 OA
BRANCH   7   9
ATOM      9  C   LIG    1        2.783  -4.220   7.162  0.00  0.00    +0.030 C 
ATOM     10  C   LIG    1        3.751  -4.713   8.239  0.00  0.00    +0.030 C 
ENDBRANCH   7   9
ENDBRANCH   4   7
BRANCH   1  11
ATOM     11  C   LIG    1        0.763  -2.041   1.233  0.00  0.00    +0.070 C 
BRANCH  11  12
ATOM     12  C   LIG    1        0.742  -0.511   1.242  0.00  0.00    +0.010 C 
BRANCH  12  14
ATOM     13  C   LIG    1       -0.019   1.526   0.010  0.00  0.00    +0.000 C 
ATOM     14  C   LIG    1        0.002  -0.004   0.002  0.00  0.00    -0.010 C 
ENDBRANCH  12  14
ENDBRANCH  11  12
ENDBRANCH   1  11
TORSDOF 5
ENDMDL
MODEL      119
REMARK  Name = ZINC000019962026
REMARK                            x       y       z     vdW  Elec       q    Type
REMARK                         _______ _______ _______ _____ _____    ______ ____
ROOT
ATOM      1  C   LIG    1        1.320  -3.783   0.385  0.00  0.00    +0.280 A 
ATOM      2  C   LIG    1        0.330  -4.593  -0.156  0.00  0.00    -0.110 A 
ATOM      3  C   LIG    1        0.105  -5.854   0.369  0.00  0.00    +0.180 A 
ATOM      4  C   LIG    1        0.868  -6.308   1.432  0.00  0.00    -0.110 A 
ATOM      5  C   LIG    1        1.856  -5.502   1.972  0.00  0.00    +0.180 A 
ATOM      6  F   LIG    1        2.599  -5.948   3.009  0.00  0.00    -0.130 F 
ATOM      7  F   LIG    1       -0.858  -6.642  -0.156  0.00  0.00    -0.130 F 
ATOM      8  C   LIG    1        2.087  -4.243   1.447  0.00  0.00    -0.110 A 
ENDROOT
BRANCH   1   9
ATOM      9  N   LIG    1        1.548  -2.511  -0.144  0.00  0.00    -0.730 N 
ATOM     10  H   LIG    1        2.243  -1.947   0.231  0.00  0.00    +0.400 HD
BRANCH   9  11
ATOM     11  C   LIG    1        0.739  -2.027  -1.265  0.00  0.00    +0.220 C 
ATOM     12  C   LIG    1        1.343  -2.522  -2.581  0.00  0.00    +0.020 C 
BRANCH  11  13
ATOM     13  C   LIG    1        0.718  -0.497  -1.257  0.00  0.00    +0.020 C 
BRANCH  13  15
ATOM     14  C   LIG    1       -0.019   1.526   0.010  0.00  0.00    +0.010 C 
ATOM     15  C   LIG    1        0.002  -0.004   0.002  0.00  0.00    +0.000 C 
ENDBRANCH  13  15
ENDBRANCH  11  13
ENDBRANCH   9  11
ENDBRANCH   1   9
TORSDOF 4
ENDMDL
MODEL      120
REMARK  Name = ZINC000019953764
REMARK                            x       y       z     vdW  Elec       q    Type
REMARK                         _______ _______ _______ _____ _____    ______ ____
ROOT
ATOM      1  C   LIG    1       -0.231  -3.795  -1.317  0.00  0.00    +0.250 A 
ATOM      2  C   LIG    1       -0.183  -4.600  -0.187  0.00  0.00    -0.110 A 
ATOM      3  C   LIG    1        0.416  -5.846  -0.252  0.00  0.00    +0.140 A 
ATOM      4  C   LIG    1        0.967  -6.288  -1.444  0.00  0.00    -0.080 A 
ATOM      5  C   LIG    1        0.920  -5.487  -2.570  0.00  0.00    +0.090 A 
ATOM      6  F   LIG    1        0.464  -6.630   0.846  0.00  0.00    -0.140 F 
ATOM      7  C   LIG    1        0.318  -4.245  -2.512  0.00  0.00    -0.180 A 
ATOM      8  C   LIG    1        0.268  -3.374  -3.740  0.00  0.00    +0.100 C 
ENDROOT
BRANCH   1   9
ATOM      9  N   LIG    1       -0.834  -2.537  -1.256  0.00  0.00    -0.730 N 
ATOM     10  H   LIG    1       -0.871  -1.977  -2.047  0.00  0.00    +0.400 HD
BRANCH   9  11
ATOM     11  C   LIG    1       -1.413  -2.063   0.004  0.00  0.00    +0.220 C 
ATOM     12  C   LIG    1       -2.841  -2.594   0.141  0.00  0.00    +0.020 C 
BRANCH  11  13
ATOM     13  C   LIG    1       -1.433  -0.534   0.013  0.00  0.00    +0.020 C 
BRANCH  13  15
ATOM     14  C   LIG    1       -0.019   1.526   0.010  0.00  0.00    +0.000 C 
ATOM     15  C   LIG    1        0.002  -0.004   0.002  0.00  0.00    +0.000 C 
ENDBRANCH  13  15
ENDBRANCH  11  13
ENDBRANCH   9  11
ENDBRANCH   1   9
TORSDOF 4
ENDMDL
MODEL      121
REMARK  Name = ZINC000019964977
REMARK                            x       y       z     vdW  Elec       q    Type
REMARK                         _______ _______ _______ _____ _____    ______ ____
ROOT
ATOM      1  N   LIG    1        0.004  -0.096   2.343  0.00  0.00    -0.740 N 
ATOM      2  H   LIG    1        0.020   0.873   2.289  0.00  0.00    +0.400 HD
ENDROOT
BRANCH   1   9
ATOM      3  C   LIG    1       -0.043   1.270  -0.152  0.00  0.00    +0.090 C 
ATOM      4  C   LIG    1       -0.061  -0.234  -0.065  0.00  0.00    -0.170 A 
ATOM      5  C   LIG    1       -0.099  -0.993  -1.219  0.00  0.00    +0.050 A 
ATOM      6  C   LIG    1       -0.117  -2.374  -1.140  0.00  0.00    -0.060 A 
ATOM      7  C   LIG    1       -0.096  -2.999   0.093  0.00  0.00    +0.040 A 
ATOM      8  C   LIG    1       -0.057  -2.247   1.250  0.00  0.00    -0.080 A 
ATOM      9  C   LIG    1       -0.035  -0.860   1.175  0.00  0.00    +0.220 A 
ENDBRANCH   1   9
BRANCH   1  10
ATOM     10  C   LIG    1        0.021  -0.757   3.651  0.00  0.00    +0.220 C 
ATOM     11  C   LIG    1        1.460  -1.124   4.018  0.00  0.00    +0.010 C 
BRANCH  10  12
ATOM     12  C   LIG    1       -0.549   0.190   4.708  0.00  0.00    +0.030 C 
BRANCH  12  13
ATOM     13  C   LIG    1       -2.026   0.458   4.410  0.00  0.00    -0.030 C 
ATOM     14  C   LIG    1       -2.558   1.517   5.378  0.00  0.00    +0.000 C 
ATOM     15  C   LIG    1       -2.824  -0.836   4.581  0.00  0.00    +0.010 C 
ENDBRANCH  12  13
ENDBRANCH  10  12
ENDBRANCH   1  10
TORSDOF 4
ENDMDL
MODEL      122
REMARK  Name = ZINC000019964976
REMARK                            x       y       z     vdW  Elec       q    Type
REMARK                         _______ _______ _______ _____ _____    ______ ____
ROOT
ATOM      1  N   LIG    1        0.020  -0.017   2.416  0.00  0.00    -0.740 N 
ATOM      2  H   LIG    1        0.011   0.953   2.423  0.00  0.00    +0.400 HD
ENDROOT
BRANCH   1   9
ATOM      3  C   LIG    1       -0.018   1.503   0.010  0.00  0.00    +0.090 C 
ATOM      4  C   LIG    1        0.002  -0.004   0.002  0.00  0.00    -0.170 A 
ATOM      5  C   LIG    1        0.006  -0.689  -1.197  0.00  0.00    +0.050 A 
ATOM      6  C   LIG    1        0.024  -2.072  -1.206  0.00  0.00    -0.060 A 
ATOM      7  C   LIG    1        0.039  -2.773  -0.014  0.00  0.00    +0.040 A 
ATOM      8  C   LIG    1        0.036  -2.095   1.189  0.00  0.00    -0.080 A 
ATOM      9  C   LIG    1        0.023  -0.706   1.201  0.00  0.00    +0.220 A 
ENDBRANCH   1   9
BRANCH   1  10
ATOM     10  C   LIG    1        0.030  -0.758   3.679  0.00  0.00    +0.220 C 
ATOM     11  C   LIG    1       -1.402  -1.139   4.059  0.00  0.00    +0.010 C 
BRANCH  10  12
ATOM     12  C   LIG    1        0.635   0.116   4.779  0.00  0.00    +0.030 C 
BRANCH  12  13
ATOM     13  C   LIG    1        2.105   0.393   4.460  0.00  0.00    -0.030 C 
ATOM     14  C   LIG    1        2.893  -0.918   4.507  0.00  0.00    +0.010 C 
ATOM     15  C   LIG    1        2.676   1.368   5.492  0.00  0.00    +0.000 C 
ENDBRANCH  12  13
ENDBRANCH  10  12
ENDBRANCH   1  10
TORSDOF 4
ENDMDL
MODEL      123
REMARK  Name = ZINC000019920262
REMARK                            x       y       z     vdW  Elec       q    Type
REMARK                         _______ _______ _______ _____ _____    ______ ____
ROOT
ATOM      1  C   LIG    1        1.320  -3.783   0.385  0.00  0.00    +0.220 A 
ATOM      2  C   LIG    1        0.330  -4.594  -0.155  0.00  0.00    -0.080 A 
ATOM      3  C   LIG    1        0.107  -5.852   0.370  0.00  0.00    +0.050 A 
ATOM      4  C   LIG    1        0.868  -6.305   1.431  0.00  0.00    -0.150 A 
ATOM      5  C   LIG    1        1.856  -5.500   1.971  0.00  0.00    -0.040 A 
ATOM      6  C   LIG    1        2.684  -5.999   3.127  0.00  0.00    +0.080 C 
ATOM      7  C   LIG    1        0.622  -7.678   2.001  0.00  0.00    +0.080 C 
ATOM      8  C   LIG    1        2.087  -4.244   1.448  0.00  0.00    -0.080 A 
ENDROOT
BRANCH   1   9
ATOM      9  N   LIG    1        1.548  -2.511  -0.144  0.00  0.00    -0.740 N 
ATOM     10  H   LIG    1        2.243  -1.947   0.231  0.00  0.00    +0.400 HD
BRANCH   9  11
ATOM     11  C   LIG    1        0.739  -2.027  -1.265  0.00  0.00    +0.230 C 
ATOM     12  C   LIG    1        1.343  -2.522  -2.581  0.00  0.00    +0.010 C 
BRANCH  11  13
ATOM     13  C   LIG    1        0.718  -0.497  -1.257  0.00  0.00    +0.020 C 
BRANCH  13  15
ATOM     14  C   LIG    1       -0.019   1.526   0.010  0.00  0.00    +0.000 C 
ATOM     15  C   LIG    1        0.002  -0.004   0.002  0.00  0.00    +0.000 C 
ENDBRANCH  13  15
ENDBRANCH  11  13
ENDBRANCH   9  11
ENDBRANCH   1   9
TORSDOF 4
ENDMDL
MODEL      124
REMARK  Name = ZINC000019918408
REMARK                            x       y       z     vdW  Elec       q    Type
REMARK                         _______ _______ _______ _____ _____    ______ ____
ROOT
ATOM      1  C   LIG    1       -0.929  -3.818   0.876  0.00  0.00    +0.240 A 
ATOM      2  C   LIG    1        0.046  -4.601   0.272  0.00  0.00    -0.040 A 
ATOM      3  C   LIG    1       -0.275  -5.855  -0.210  0.00  0.00    +0.070 A 
ATOM      4  C   LIG    1       -1.569  -6.333  -0.092  0.00  0.00    +0.000 A 
ATOM      5  C   LIG    1       -2.545  -5.553   0.510  0.00  0.00    +0.120 A 
ATOM      6  F   LIG    1       -3.808  -6.021   0.625  0.00  0.00    -0.130 F 
ATOM      7  F   LIG    1       -1.881  -7.559  -0.564  0.00  0.00    -0.140 F 
ATOM      8  C   LIG    1       -2.226  -4.300   0.999  0.00  0.00    -0.070 A 
ENDROOT
BRANCH   1   9
ATOM      9  N   LIG    1       -0.605  -2.548   1.364  0.00  0.00    -0.730 N 
ATOM     10  H   LIG    1       -1.286  -2.004   1.789  0.00  0.00    +0.400 HD
BRANCH   9  11
ATOM     11  C   LIG    1        0.763  -2.041   1.233  0.00  0.00    +0.220 C 
ATOM     12  C   LIG    1        1.608  -2.546   2.404  0.00  0.00    +0.020 C 
BRANCH  11  13
ATOM     13  C   LIG    1        0.742  -0.511   1.242  0.00  0.00    +0.020 C 
BRANCH  13  15
ATOM     14  C   LIG    1       -0.019   1.526   0.010  0.00  0.00    +0.010 C 
ATOM     15  C   LIG    1        0.002  -0.004   0.002  0.00  0.00    +0.000 C 
ENDBRANCH  13  15
ENDBRANCH  11  13
ENDBRANCH   9  11
ENDBRANCH   1   9
TORSDOF 4
ENDMDL
MODEL      125
REMARK  Name = ZINC000019907922
REMARK                            x       y       z     vdW  Elec       q    Type
REMARK                         _______ _______ _______ _____ _____    ______ ____
ROOT
ATOM      1  C   LIG    1       -0.929  -3.818   0.876  0.00  0.00    +0.220 A 
ATOM      2  C   LIG    1        0.045  -4.601   0.273  0.00  0.00    -0.080 A 
ATOM      3  C   LIG    1       -0.279  -5.857  -0.209  0.00  0.00    +0.140 A 
ATOM      4  C   LIG    1       -1.573  -6.333  -0.089  0.00  0.00    -0.050 A 
ATOM      5  C   LIG    1       -2.547  -5.555   0.512  0.00  0.00    +0.080 A 
ATOM      6  F   LIG    1        0.669  -6.620  -0.796  0.00  0.00    -0.130 F 
ATOM      7  C   LIG    1       -2.228  -4.301   0.999  0.00  0.00    +0.010 A 
ATOM      8  F   LIG    1       -3.179  -3.542   1.585  0.00  0.00    -0.140 F 
ENDROOT
BRANCH   1   9
ATOM      9  N   LIG    1       -0.605  -2.548   1.364  0.00  0.00    -0.730 N 
ATOM     10  H   LIG    1       -1.286  -2.004   1.789  0.00  0.00    +0.410 HD
BRANCH   9  11
ATOM     11  C   LIG    1        0.763  -2.041   1.233  0.00  0.00    +0.220 C 
ATOM     12  C   LIG    1        1.608  -2.546   2.404  0.00  0.00    +0.020 C 
BRANCH  11  13
ATOM     13  C   LIG    1        0.742  -0.511   1.242  0.00  0.00    +0.020 C 
BRANCH  13  15
ATOM     14  C   LIG    1       -0.019   1.526   0.010  0.00  0.00    +0.010 C 
ATOM     15  C   LIG    1        0.002  -0.004   0.002  0.00  0.00    -0.010 C 
ENDBRANCH  13  15
ENDBRANCH  11  13
ENDBRANCH   9  11
ENDBRANCH   1   9
TORSDOF 4
ENDMDL
MODEL      126
REMARK  Name = ZINC000019956229
REMARK                            x       y       z     vdW  Elec       q    Type
REMARK                         _______ _______ _______ _____ _____    ______ ____
ROOT
ATOM      1  C   LIG    1        1.320  -3.783   0.385  0.00  0.00    +0.240 A 
ATOM      2  C   LIG    1        0.330  -4.594  -0.155  0.00  0.00    -0.080 A 
ATOM      3  C   LIG    1        0.105  -5.852   0.369  0.00  0.00    +0.090 A 
ATOM      4  C   LIG    1        0.865  -6.306   1.430  0.00  0.00    -0.180 A 
ATOM      5  C   LIG    1        1.854  -5.502   1.972  0.00  0.00    +0.140 A 
ATOM      6  F   LIG    1        2.596  -5.949   3.009  0.00  0.00    -0.140 F 
ATOM      7  C   LIG    1        0.617  -7.679   1.999  0.00  0.00    +0.090 C 
ATOM      8  C   LIG    1        2.087  -4.243   1.448  0.00  0.00    -0.100 A 
ENDROOT
BRANCH   1   9
ATOM      9  N   LIG    1        1.548  -2.511  -0.144  0.00  0.00    -0.740 N 
ATOM     10  H   LIG    1        2.243  -1.947   0.231  0.00  0.00    +0.400 HD
BRANCH   9  11
ATOM     11  C   LIG    1        0.739  -2.027  -1.265  0.00  0.00    +0.230 C 
ATOM     12  C   LIG    1        1.343  -2.522  -2.581  0.00  0.00    +0.020 C 
BRANCH  11  13
ATOM     13  C   LIG    1        0.718  -0.497  -1.257  0.00  0.00    +0.020 C 
BRANCH  13  15
ATOM     14  C   LIG    1       -0.019   1.526   0.010  0.00  0.00    +0.000 C 
ATOM     15  C   LIG    1        0.002  -0.004   0.002  0.00  0.00    +0.000 C 
ENDBRANCH  13  15
ENDBRANCH  11  13
ENDBRANCH   9  11
ENDBRANCH   1   9
TORSDOF 4
ENDMDL
MODEL      127
REMARK  Name = ZINC000019965114
REMARK                            x       y       z     vdW  Elec       q    Type
REMARK                         _______ _______ _______ _____ _____    ______ ____
ROOT
ATOM      1  N   LIG    1        1.548  -2.511  -0.144  0.00  0.00    -0.740 N 
ATOM      2  H   LIG    1        2.243  -1.947   0.231  0.00  0.00    +0.400 HD
ENDROOT
BRANCH   1   3
ATOM      3  C   LIG    1        1.320  -3.783   0.385  0.00  0.00    +0.220 A 
ATOM      4  C   LIG    1        0.330  -4.594  -0.155  0.00  0.00    -0.080 A 
ATOM      5  C   LIG    1        0.107  -5.852   0.370  0.00  0.00    +0.040 A 
ATOM      6  C   LIG    1        0.868  -6.305   1.431  0.00  0.00    -0.060 A 
ATOM      7  C   LIG    1        1.855  -5.500   1.971  0.00  0.00    +0.050 A 
ATOM      8  C   LIG    1        2.087  -4.244   1.448  0.00  0.00    -0.170 A 
ATOM      9  C   LIG    1        3.162  -3.368   2.037  0.00  0.00    +0.080 C 
ENDBRANCH   1   3
BRANCH   1  10
ATOM     10  C   LIG    1        0.739  -2.027  -1.265  0.00  0.00    +0.230 C 
ATOM     11  C   LIG    1        1.343  -2.522  -2.581  0.00  0.00    +0.010 C 
BRANCH  10  12
ATOM     12  C   LIG    1        0.718  -0.497  -1.257  0.00  0.00    +0.020 C 
BRANCH  12  14
ATOM     13  C   LIG    1       -0.019   1.526   0.010  0.00  0.00    +0.000 C 
ATOM     14  C   LIG    1        0.002  -0.004   0.002  0.00  0.00    +0.000 C 
ENDBRANCH  12  14
ENDBRANCH  10  12
ENDBRANCH   1  10
TORSDOF 4
ENDMDL
MODEL      128
REMARK  Name = ZINC000020371383
REMARK                            x       y       z     vdW  Elec       q    Type
REMARK                         _______ _______ _______ _____ _____    ______ ____
ROOT
ATOM      1  C   LIG    1        1.320  -3.785   0.385  0.00  0.00    +0.190 A 
ATOM      2  C   LIG    1        0.330  -4.595  -0.154  0.00  0.00    -0.040 A 
ATOM      3  C   LIG    1        0.107  -5.854   0.371  0.00  0.00    +0.050 A 
ATOM      4  C   LIG    1        0.867  -6.307   1.432  0.00  0.00    -0.120 A 
ATOM      5  C   LIG    1        1.855  -5.504   1.973  0.00  0.00    +0.020 A 
ATOM      6  C   LIG    1        0.620  -7.681   2.002  0.00  0.00    +0.090 C 
ATOM      7  C   LIG    1        2.088  -4.246   1.450  0.00  0.00    +0.020 A 
ATOM      8  F   LIG    1        3.053  -3.461   1.978  0.00  0.00    -0.140 F 
ENDROOT
BRANCH   1   9
ATOM      9  N   LIG    1        1.548  -2.511  -0.144  0.00  0.00    -0.740 N 
ATOM     10  H   LIG    1        2.243  -1.947   0.231  0.00  0.00    +0.400 HD
BRANCH   9  11
ATOM     11  C   LIG    1        0.739  -2.027  -1.265  0.00  0.00    +0.230 C 
ATOM     12  C   LIG    1        1.343  -2.522  -2.581  0.00  0.00    +0.020 C 
BRANCH  11  13
ATOM     13  C   LIG    1        0.718  -0.497  -1.257  0.00  0.00    +0.020 C 
BRANCH  13  15
ATOM     14  C   LIG    1       -0.019   1.526   0.010  0.00  0.00    +0.000 C 
ATOM     15  C   LIG    1        0.002  -0.004   0.002  0.00  0.00    +0.000 C 
ENDBRANCH  13  15
ENDBRANCH  11  13
ENDBRANCH   9  11
ENDBRANCH   1   9
TORSDOF 4
ENDMDL
MODEL      129
REMARK  Name = ZINC000019965109
REMARK                            x       y       z     vdW  Elec       q    Type
REMARK                         _______ _______ _______ _____ _____    ______ ____
ROOT
ATOM      1  N   LIG    1        0.020  -0.017   2.416  0.00  0.00    -0.740 N 
ATOM      2  H   LIG    1        0.011   0.953   2.423  0.00  0.00    +0.400 HD
ENDROOT
BRANCH   1   9
ATOM      3  C   LIG    1       -0.018   1.503   0.010  0.00  0.00    +0.080 C 
ATOM      4  C   LIG    1        0.002  -0.004   0.002  0.00  0.00    -0.170 A 
ATOM      5  C   LIG    1        0.006  -0.689  -1.197  0.00  0.00    +0.050 A 
ATOM      6  C   LIG    1        0.024  -2.072  -1.206  0.00  0.00    -0.060 A 
ATOM      7  C   LIG    1        0.039  -2.773  -0.014  0.00  0.00    +0.040 A 
ATOM      8  C   LIG    1        0.036  -2.095   1.189  0.00  0.00    -0.080 A 
ATOM      9  C   LIG    1        0.023  -0.706   1.201  0.00  0.00    +0.220 A 
ENDBRANCH   1   9
BRANCH   1  10
ATOM     10  C   LIG    1        0.030  -0.758   3.679  0.00  0.00    +0.230 C 
ATOM     11  C   LIG    1        1.472  -1.112   4.051  0.00  0.00    +0.000 C 
ATOM     12  C   LIG    1        1.482  -1.886   5.370  0.00  0.00    +0.000 C 
ATOM     13  C   LIG    1        0.868  -1.023   6.474  0.00  0.00    +0.000 C 
ATOM     14  C   LIG    1       -0.574  -0.670   6.102  0.00  0.00    +0.010 C 
ATOM     15  C   LIG    1       -0.585   0.105   4.782  0.00  0.00    +0.010 C 
ENDBRANCH   1  10
TORSDOF 2
ENDMDL
MODEL      130
REMARK  Name = ZINC000146044136
REMARK                            x       y       z     vdW  Elec       q    Type
REMARK                         _______ _______ _______ _____ _____    ______ ____
ROOT
ATOM      1  C   LIG    1        0.707  -0.490  -1.238  0.00  0.00    -0.090 A 
ATOM      2  C   LIG    1        1.217   0.420  -2.145  0.00  0.00    +0.050 A 
ATOM      3  C   LIG    1        1.865  -0.025  -3.282  0.00  0.00    +0.030 A 
ATOM      4  C   LIG    1        2.003  -1.381  -3.515  0.00  0.00    +0.050 A 
ATOM      5  C   LIG    1        1.494  -2.293  -2.609  0.00  0.00    -0.070 A 
ATOM      6 CL   LIG    1        1.668  -3.996  -2.901  0.00  0.00    -0.050 Cl
ATOM      7  C   LIG    1        0.850  -1.848  -1.466  0.00  0.00    +0.110 A 
ATOM      8  F   LIG    1        0.352  -2.738  -0.580  0.00  0.00    -0.120 F 
ENDROOT
BRANCH   1  10
ATOM      9  C   LIG    1       -0.019   1.526   0.010  0.00  0.00    +0.030 C 
ATOM     10  C   LIG    1        0.002  -0.004   0.002  0.00  0.00    -0.030 C 
ATOM     11  C   LIG    1       -1.433  -0.534   0.013  0.00  0.00    +0.030 C 
ATOM     12  C   LIG    1        0.742  -0.511   1.242  0.00  0.00    +0.030 C 
ENDBRANCH   1  10
TORSDOF 1
ENDMDL
MODEL      131
REMARK  Name = ZINC000002011547
REMARK                            x       y       z     vdW  Elec       q    Type
REMARK                         _______ _______ _______ _____ _____    ______ ____
ROOT
ATOM      1  C   LIG    1        1.382  -2.542   2.512  0.00  0.00    -0.080 A 
ATOM      2  C   LIG    1        2.678  -2.187   2.838  0.00  0.00    +0.000 A 
ATOM      3  C   LIG    1        3.246  -2.647   4.011  0.00  0.00    +0.000 A 
ATOM      4  C   LIG    1        2.519  -3.461   4.859  0.00  0.00    -0.010 A 
ATOM      5  C   LIG    1        1.222  -3.814   4.534  0.00  0.00    +0.000 A 
ATOM      6  C   LIG    1        0.653  -3.351   3.363  0.00  0.00    +0.000 A 
ENDROOT
BRANCH   1   7
ATOM      7  C   LIG    1        0.763  -2.041   1.233  0.00  0.00    +0.030 C 
ATOM      8  C   LIG    1        1.586  -2.533   0.041  0.00  0.00    +0.030 C 
BRANCH   7   9
ATOM      9  C   LIG    1        0.742  -0.511   1.242  0.00  0.00    +0.010 C 
BRANCH   9  11
ATOM     10  C   LIG    1       -0.019   1.526   0.010  0.00  0.00    +0.000 C 
ATOM     11  C   LIG    1        0.002  -0.004   0.002  0.00  0.00    -0.010 C 
ENDBRANCH   9  11
ENDBRANCH   7   9
ENDBRANCH   1   7
TORSDOF 3
ENDMDL
MODEL      132
REMARK  Name = ZINC000000984455
REMARK                            x       y       z     vdW  Elec       q    Type
REMARK                         _______ _______ _______ _____ _____    ______ ____
ROOT
ATOM      1  C   LIG    1       -0.016   1.339   0.009  0.00  0.00    +0.050 C 
ATOM      2  C   LIG    1        0.002  -0.004   0.002  0.00  0.00    +0.010 C 
ENDROOT
BRANCH   2   3
ATOM      3  C   LIG    1       -1.264  -0.758   0.010  0.00  0.00    -0.060 A 
ATOM      4  C   LIG    1       -2.486  -0.079   0.020  0.00  0.00    +0.020 A 
ATOM      5  C   LIG    1       -3.666  -0.792   0.027  0.00  0.00    +0.000 A 
ATOM      6  C   LIG    1       -3.644  -2.176   0.025  0.00  0.00    +0.000 A 
ATOM      7  C   LIG    1       -2.438  -2.855   0.016  0.00  0.00    +0.000 A 
ATOM      8  C   LIG    1       -1.249  -2.156   0.002  0.00  0.00    +0.010 A 
ENDBRANCH   2   3
BRANCH   1   9
ATOM      9  C   LIG    1        1.250   2.093   0.001  0.00  0.00    -0.080 A 
ATOM     10  C   LIG    1        2.463   1.502  -0.019  0.00  0.00    -0.040 A 
ATOM     11  S   LIG    1        3.726   2.723  -0.023  0.00  0.00    +0.100 S 
ATOM     12  C   LIG    1        2.546   4.023   0.004  0.00  0.00    -0.040 A 
ATOM     13  C   LIG    1        1.312   3.533   0.009  0.00  0.00    +0.030 A 
ENDBRANCH   1   9
TORSDOF 2
ENDMDL
MODEL      133
REMARK  Name = ZINC000526058839
REMARK                            x       y       z     vdW  Elec       q    Type
REMARK                         _______ _______ _______ _____ _____    ______ ____
ROOT
ATOM      1  N   LIG    1        1.219  -3.004  -2.159  0.00  0.00    -0.740 N 
ATOM      2  H   LIG    1        1.545  -2.757  -3.039  0.00  0.00    +0.400 HD
ENDROOT
BRANCH   1   3
ATOM      3  C   LIG    1        1.288  -4.335  -1.736  0.00  0.00    +0.210 A 
ATOM      4  C   LIG    1        0.988  -4.663  -0.420  0.00  0.00    -0.030 A 
ATOM      5  C   LIG    1        1.057  -5.978  -0.004  0.00  0.00    +0.020 A 
ATOM      6  C   LIG    1        1.426  -6.969  -0.898  0.00  0.00    +0.030 A 
ATOM      7  C   LIG    1        1.725  -6.645  -2.210  0.00  0.00    +0.030 A 
ATOM      8  F   LIG    1        1.493  -8.255  -0.489  0.00  0.00    -0.150 F 
ATOM      9  C   LIG    1        1.652  -5.332  -2.632  0.00  0.00    -0.040 A 
ENDBRANCH   1   3
BRANCH   1  10
ATOM     10  C   LIG    1        0.655  -1.982  -1.274  0.00  0.00    +0.180 C 
ATOM     11  C   LIG    1       -0.732  -2.425  -0.803  0.00  0.00    +0.030 C 
ATOM     12  C   LIG    1        1.570  -1.795  -0.062  0.00  0.00    +0.020 C 
BRANCH  10  13
ATOM     13  C   LIG    1        0.537  -0.659  -2.033  0.00  0.00    +0.020 C 
BRANCH  13  15
ATOM     14  C   LIG    1       -0.171   1.731  -1.867  0.00  0.00    +0.010 C 
ATOM     15  C   LIG    1       -0.053   0.408  -1.108  0.00  0.00    +0.020 C 
ENDBRANCH  13  15
ENDBRANCH  10  13
ENDBRANCH   1  10
TORSDOF 4
ENDMDL
MODEL      134
REMARK  Name = ZINC000526058837
REMARK                            x       y       z     vdW  Elec       q    Type
REMARK                         _______ _______ _______ _____ _____    ______ ____
ROOT
ATOM      1  N   LIG    1       -1.380  -2.161  -0.409  0.00  0.00    -0.740 N 
ATOM      2  H   LIG    1       -1.616  -2.859   0.221  0.00  0.00    +0.400 HD
ENDROOT
BRANCH   1   3
ATOM      3  C   LIG    1       -0.927  -2.498  -1.688  0.00  0.00    +0.210 A 
ATOM      4  C   LIG    1       -0.454  -1.510  -2.541  0.00  0.00    -0.030 A 
ATOM      5  C   LIG    1       -0.007  -1.845  -3.804  0.00  0.00    +0.020 A 
ATOM      6  C   LIG    1       -0.031  -3.165  -4.221  0.00  0.00    +0.030 A 
ATOM      7  C   LIG    1       -0.503  -4.152  -3.372  0.00  0.00    +0.030 A 
ATOM      8  F   LIG    1        0.406  -3.490  -5.457  0.00  0.00    -0.150 F 
ATOM      9  C   LIG    1       -0.945  -3.822  -2.106  0.00  0.00    -0.040 A 
ENDBRANCH   1   3
BRANCH   1  10
ATOM     10  C   LIG    1       -1.498  -0.753  -0.021  0.00  0.00    +0.180 C 
ATOM     11  C   LIG    1       -2.367  -0.014  -1.041  0.00  0.00    +0.030 C 
ATOM     12  C   LIG    1       -2.144  -0.658   1.363  0.00  0.00    +0.050 C 
BRANCH  10  14
ATOM     13  C   LIG    1       -0.240   1.383   0.290  0.00  0.00    +0.030 C 
ATOM     14  C   LIG    1       -0.107  -0.117   0.020  0.00  0.00    -0.030 C 
ATOM     15  C   LIG    1        0.717  -0.765   1.135  0.00  0.00    +0.020 C 
ENDBRANCH  10  14
ENDBRANCH   1  10
TORSDOF 3
ENDMDL
MODEL      135
REMARK  Name = ZINC000526058835
REMARK                            x       y       z     vdW  Elec       q    Type
REMARK                         _______ _______ _______ _____ _____    ______ ____
ROOT
ATOM      1  N   LIG    1       -2.014  -1.817  -0.019  0.00  0.00    -0.740 N 
ATOM      2  H   LIG    1       -1.471  -2.605  -0.175  0.00  0.00    +0.400 HD
ENDROOT
BRANCH   1   3
ATOM      3  C   LIG    1       -3.378  -1.950   0.249  0.00  0.00    +0.230 A 
ATOM      4  C   LIG    1       -4.121  -0.844   0.644  0.00  0.00    -0.050 A 
ATOM      5  C   LIG    1       -5.470  -0.979   0.908  0.00  0.00    +0.070 A 
ATOM      6  C   LIG    1       -6.082  -2.213   0.780  0.00  0.00    -0.090 A 
ATOM      7  C   LIG    1       -5.345  -3.316   0.387  0.00  0.00    +0.070 A 
ATOM      8 CL   LIG    1       -7.778  -2.378   1.112  0.00  0.00    -0.080 Cl
ATOM      9  C   LIG    1       -3.997  -3.186   0.115  0.00  0.00    -0.060 A 
ENDBRANCH   1   3
BRANCH   1  10
ATOM     10  C   LIG    1       -1.402  -0.486  -0.064  0.00  0.00    +0.180 C 
ATOM     11  C   LIG    1       -2.187   0.403  -1.032  0.00  0.00    +0.030 C 
ATOM     12  C   LIG    1       -1.428   0.135   1.334  0.00  0.00    +0.020 C 
BRANCH  10  14
ATOM     13  C   LIG    1        0.685   0.783  -0.590  0.00  0.00    +0.030 C 
ATOM     14  C   LIG    1        0.046  -0.606  -0.542  0.00  0.00    +0.020 C 
ENDBRANCH  10  14
ENDBRANCH   1  10
TORSDOF 3
ENDMDL
MODEL      136
REMARK  Name = ZINC000526058846
REMARK                            x       y       z     vdW  Elec       q    Type
REMARK                         _______ _______ _______ _____ _____    ______ ____
ROOT
ATOM      1  N   LIG    1        1.219  -3.004  -2.159  0.00  0.00    -0.740 N 
ATOM      2  H   LIG    1        1.546  -2.757  -3.038  0.00  0.00    +0.400 HD
ENDROOT
BRANCH   1   3
ATOM      3  C   LIG    1        1.287  -4.334  -1.736  0.00  0.00    +0.220 A 
ATOM      4  C   LIG    1        0.985  -4.662  -0.420  0.00  0.00    -0.080 A 
ATOM      5  C   LIG    1        1.052  -5.978  -0.006  0.00  0.00    +0.050 A 
ATOM      6  C   LIG    1        1.419  -6.968  -0.899  0.00  0.00    -0.060 A 
ATOM      7  C   LIG    1        1.721  -6.644  -2.209  0.00  0.00    -0.040 A 
ATOM      8  C   LIG    1        2.122  -7.726  -3.178  0.00  0.00    +0.080 C 
ATOM      9  C   LIG    1        1.651  -5.331  -2.631  0.00  0.00    -0.080 A 
ENDBRANCH   1   3
BRANCH   1  10
ATOM     10  C   LIG    1        0.655  -1.982  -1.274  0.00  0.00    +0.180 C 
ATOM     11  C   LIG    1       -0.733  -2.424  -0.803  0.00  0.00    +0.030 C 
ATOM     12  C   LIG    1        1.569  -1.796  -0.061  0.00  0.00    +0.020 C 
BRANCH  10  13
ATOM     13  C   LIG    1        0.538  -0.658  -2.033  0.00  0.00    +0.020 C 
BRANCH  13  15
ATOM     14  C   LIG    1       -0.167   1.733  -1.867  0.00  0.00    +0.010 C 
ATOM     15  C   LIG    1       -0.051   0.409  -1.109  0.00  0.00    +0.020 C 
ENDBRANCH  13  15
ENDBRANCH  10  13
ENDBRANCH   1  10
TORSDOF 4
ENDMDL
MODEL      137
REMARK  Name = ZINC000003075451
REMARK                            x       y       z     vdW  Elec       q    Type
REMARK                         _______ _______ _______ _____ _____    ______ ____
ROOT
ATOM      1  C   LIG    1       -0.022   0.076  -2.421  0.00  0.00    +0.010 C 
ATOM      2  C   LIG    1       -0.024  -0.591  -3.590  0.00  0.00    +0.000 C 
ENDROOT
BRANCH   2   3
ATOM      3  C   LIG    1       -0.046   0.153  -4.861  0.00  0.00    -0.060 A 
ATOM      4  C   LIG    1       -0.059   1.550  -4.858  0.00  0.00    +0.000 A 
ATOM      5  C   LIG    1       -0.080   2.239  -6.052  0.00  0.00    +0.000 A 
ATOM      6  C   LIG    1       -0.088   1.550  -7.252  0.00  0.00    +0.000 A 
ATOM      7  C   LIG    1       -0.076   0.166  -7.264  0.00  0.00    +0.000 A 
ATOM      8  C   LIG    1       -0.048  -0.536  -6.077  0.00  0.00    +0.010 A 
ENDBRANCH   2   3
BRANCH   1  11
ATOM      9  C   LIG    1       -0.018   1.503   0.010  0.00  0.00    +0.080 C 
ATOM     10  C   LIG    1        0.002  -0.004   0.002  0.00  0.00    -0.110 C 
ATOM     11  C   LIG    1        0.000  -0.664  -1.155  0.00  0.00    -0.040 C 
ATOM     12  C   LIG    1        0.025  -0.764   1.303  0.00  0.00    +0.090 C 
ENDBRANCH   1  11
TORSDOF 2
ENDMDL
MODEL      138
REMARK  Name = ZINC000001577148
REMARK                            x       y       z     vdW  Elec       q    Type
REMARK                         _______ _______ _______ _____ _____    ______ ____
ROOT
ATOM      1  C   LIG    1       -0.016   1.338   0.009  0.00  0.00    +0.010 C 
ATOM      2  C   LIG    1        0.002  -0.004   0.002  0.00  0.00    +0.010 C 
ENDROOT
BRANCH   1   3
ATOM      3  C   LIG    1        1.250   2.092   0.001  0.00  0.00    -0.060 A 
ATOM      4  C   LIG    1        2.471   1.414  -0.020  0.00  0.00    +0.010 A 
ATOM      5  C   LIG    1        3.652   2.126  -0.027  0.00  0.00    +0.000 A 
ATOM      6  C   LIG    1        3.630   3.510  -0.014  0.00  0.00    +0.000 A 
ATOM      7  C   LIG    1        2.424   4.189   0.008  0.00  0.00    +0.000 A 
ATOM      8  C   LIG    1        1.235   3.490   0.009  0.00  0.00    +0.010 A 
ENDBRANCH   1   3
BRANCH   2   9
ATOM      9  C   LIG    1       -1.264  -0.758   0.010  0.00  0.00    -0.060 A 
ATOM     10  C   LIG    1       -2.486  -0.080   0.020  0.00  0.00    +0.010 A 
ATOM     11  C   LIG    1       -3.667  -0.792   0.027  0.00  0.00    +0.000 A 
ATOM     12  C   LIG    1       -3.644  -2.176   0.025  0.00  0.00    +0.000 A 
ATOM     13  C   LIG    1       -2.438  -2.855   0.016  0.00  0.00    +0.000 A 
ATOM     14  C   LIG    1       -1.249  -2.156   0.002  0.00  0.00    +0.010 A 
ENDBRANCH   2   9
TORSDOF 2
ENDMDL
MODEL      139
REMARK  Name = ZINC000001038965
REMARK                            x       y       z     vdW  Elec       q    Type
REMARK                         _______ _______ _______ _____ _____    ______ ____
ROOT
ATOM      1  C   LIG    1       -0.016   1.343   0.009  0.00  0.00    +0.050 C 
ATOM      2  C   LIG    1        0.002  -0.004   0.002  0.00  0.00    +0.010 C 
ENDROOT
BRANCH   2   3
ATOM      3  C   LIG    1       -1.263  -0.758   0.010  0.00  0.00    -0.060 A 
ATOM      4  C   LIG    1       -2.485  -0.079   0.019  0.00  0.00    +0.020 A 
ATOM      5  C   LIG    1       -3.666  -0.791   0.026  0.00  0.00    +0.000 A 
ATOM      6  C   LIG    1       -3.643  -2.175   0.024  0.00  0.00    +0.000 A 
ATOM      7  C   LIG    1       -2.437  -2.854   0.015  0.00  0.00    +0.000 A 
ATOM      8  C   LIG    1       -1.248  -2.156   0.002  0.00  0.00    +0.010 A 
ENDBRANCH   2   3
BRANCH   1   9
ATOM      9  C   LIG    1        1.243   2.093   0.001  0.00  0.00    -0.160 A 
ATOM     10  C   LIG    1        1.351   3.452   0.013  0.00  0.00    +0.010 A 
ATOM     11  C   LIG    1        2.647   3.920   0.003  0.00  0.00    +0.010 A 
ATOM     12  C   LIG    1        3.593   2.975  -0.017  0.00  0.00    -0.050 A 
ATOM     13  S   LIG    1        2.851   1.381  -0.017  0.00  0.00    +0.120 S 
ENDBRANCH   1   9
TORSDOF 2
ENDMDL
MODEL      140
REMARK  Name = ZINC000000480601
REMARK                            x       y       z     vdW  Elec       q    Type
REMARK                         _______ _______ _______ _____ _____    ______ ____
ROOT
ATOM      1  C   LIG    1       -0.016   1.338   0.009  0.00  0.00    +0.030 C 
ATOM      2  C   LIG    1        0.002  -0.004   0.002  0.00  0.00    +0.030 C 
ENDROOT
BRANCH   1   3
ATOM      3  C   LIG    1        1.251   2.093   0.001  0.00  0.00    -0.070 A 
ATOM      4  C   LIG    1        2.460   1.493  -0.019  0.00  0.00    -0.040 A 
ATOM      5  S   LIG    1        3.723   2.717  -0.023  0.00  0.00    +0.110 S 
ATOM      6  C   LIG    1        2.526   4.004   0.004  0.00  0.00    -0.040 A 
ATOM      7  C   LIG    1        1.301   3.488   0.008  0.00  0.00    +0.010 A 
ENDBRANCH   1   3
BRANCH   2   8
ATOM      8  C   LIG    1       -1.265  -0.759   0.010  0.00  0.00    -0.070 A 
ATOM      9  C   LIG    1       -2.474  -0.159   0.019  0.00  0.00    -0.040 A 
ATOM     10  S   LIG    1       -3.737  -1.383   0.027  0.00  0.00    +0.110 S 
ATOM     11  C   LIG    1       -2.540  -2.671   0.017  0.00  0.00    -0.040 A 
ATOM     12  C   LIG    1       -1.315  -2.154   0.003  0.00  0.00    +0.010 A 
ENDBRANCH   2   8
TORSDOF 2
ENDMDL
MODEL      141
REMARK  Name = ZINC000006198602
REMARK                            x       y       z     vdW  Elec       q    Type
REMARK                         _______ _______ _______ _____ _____    ______ ____
ROOT
ATOM      1  C   LIG    1        0.060   1.205   0.019  0.00  0.00    +0.040 C 
ATOM      2  C   LIG    1       -0.075  -0.130   0.044  0.00  0.00    +0.040 C 
ENDROOT
BRANCH   1   3
ATOM      3  C   LIG    1        1.363   1.808  -0.314  0.00  0.00    -0.090 A 
ATOM      4  C   LIG    1        2.212   1.266  -1.212  0.00  0.00    -0.030 A 
ATOM      5  S   LIG    1        3.653   2.267  -1.338  0.00  0.00    +0.100 S 
ATOM      6  C   LIG    1        3.020   3.392  -0.144  0.00  0.00    -0.060 A 
ATOM      7  C   LIG    1        1.821   2.992   0.268  0.00  0.00    +0.020 A 
ENDBRANCH   1   3
BRANCH   2   8
ATOM      8  C   LIG    1        1.117  -0.994  -0.053  0.00  0.00    -0.090 A 
ATOM      9  C   LIG    1        2.307  -0.662   0.489  0.00  0.00    -0.030 A 
ATOM     10  S   LIG    1        3.476  -1.935   0.165  0.00  0.00    +0.100 S 
ATOM     11  C   LIG    1        2.270  -2.871  -0.707  0.00  0.00    -0.060 A 
ATOM     12  C   LIG    1        1.108  -2.226  -0.710  0.00  0.00    +0.020 A 
ENDBRANCH   2   8
TORSDOF 2
ENDMDL
MODEL      142
REMARK  Name = ZINC000006192841
REMARK                            x       y       z     vdW  Elec       q    Type
REMARK                         _______ _______ _______ _____ _____    ______ ____
ROOT
ATOM      1  C   LIG    1       -0.062   1.369  -0.143  0.00  0.00    +0.050 C 
ATOM      2  C   LIG    1        0.028   0.044   0.057  0.00  0.00    +0.020 C 
ENDROOT
BRANCH   2   3
ATOM      3  C   LIG    1        1.334  -0.630  -0.047  0.00  0.00    -0.060 A 
ATOM      4  C   LIG    1        2.475  -0.040   0.503  0.00  0.00    +0.030 A 
ATOM      5  C   LIG    1        3.694  -0.677   0.403  0.00  0.00    +0.000 A 
ATOM      6  C   LIG    1        3.789  -1.898  -0.242  0.00  0.00    +0.000 A 
ATOM      7  C   LIG    1        2.664  -2.489  -0.789  0.00  0.00    +0.000 A 
ATOM      8  C   LIG    1        1.437  -1.866  -0.691  0.00  0.00    +0.010 A 
ENDBRANCH   2   3
BRANCH   1   9
ATOM      9  C   LIG    1        1.097   2.115  -0.663  0.00  0.00    -0.080 A 
ATOM     10  C   LIG    1        1.935   1.623  -1.600  0.00  0.00    -0.030 A 
ATOM     11  S   LIG    1        3.188   2.799  -1.963  0.00  0.00    +0.100 S 
ATOM     12  C   LIG    1        2.525   3.945  -0.809  0.00  0.00    -0.050 A 
ATOM     13  C   LIG    1        1.443   3.444  -0.224  0.00  0.00    +0.020 A 
ENDBRANCH   1   9
TORSDOF 2
ENDMDL
MODEL      143
REMARK  Name = ZINC000008585877
REMARK                            x       y       z     vdW  Elec       q    Type
REMARK                         _______ _______ _______ _____ _____    ______ ____
ROOT
ATOM      1  C   LIG    1       -0.026   1.360  -0.027  0.00  0.00    +0.020 C 
ATOM      2  C   LIG    1        0.033   0.023   0.070  0.00  0.00    +0.020 C 
ENDROOT
BRANCH   1   3
ATOM      3  C   LIG    1        1.174   2.125  -0.410  0.00  0.00    -0.060 A 
ATOM      4  C   LIG    1        2.054   1.617  -1.369  0.00  0.00    +0.030 A 
ATOM      5  C   LIG    1        3.175   2.338  -1.722  0.00  0.00    +0.000 A 
ATOM      6  C   LIG    1        3.429   3.563  -1.130  0.00  0.00    +0.000 A 
ATOM      7  C   LIG    1        2.562   4.072  -0.179  0.00  0.00    +0.000 A 
ATOM      8  C   LIG    1        1.434   3.365   0.180  0.00  0.00    +0.010 A 
ENDBRANCH   1   3
BRANCH   2   9
ATOM      9  C   LIG    1        1.334  -0.665  -0.015  0.00  0.00    -0.060 A 
ATOM     10  C   LIG    1        2.468  -0.096   0.569  0.00  0.00    +0.030 A 
ATOM     11  C   LIG    1        3.682  -0.746   0.486  0.00  0.00    +0.000 A 
ATOM     12  C   LIG    1        3.778  -1.958  -0.174  0.00  0.00    +0.000 A 
ATOM     13  C   LIG    1        2.659  -2.528  -0.755  0.00  0.00    +0.000 A 
ATOM     14  C   LIG    1        1.437  -1.893  -0.674  0.00  0.00    +0.010 A 
ENDBRANCH   2   9
TORSDOF 2
ENDMDL
MODEL      144
REMARK  Name = ZINC000071782929
REMARK                            x       y       z     vdW  Elec       q    Type
REMARK                         _______ _______ _______ _____ _____    ______ ____
ROOT
ATOM      1  C   LIG    1       -0.018   1.503   0.010  0.00  0.00    +0.090 C 
ATOM      2  C   LIG    1        0.002  -0.004   0.002  0.00  0.00    -0.100 C 
ATOM      3  C   LIG    1        0.022  -0.673   1.146  0.00  0.00    -0.020 C 
ENDROOT
BRANCH   2   4
ATOM      4  C   LIG    1       -0.000  -0.736  -1.282  0.00  0.00    -0.040 A 
ATOM      5  C   LIG    1        1.098  -1.516  -1.646  0.00  0.00    +0.010 A 
ATOM      6  C   LIG    1        1.090  -2.197  -2.846  0.00  0.00    +0.000 A 
ATOM      7  C   LIG    1       -0.005  -2.108  -3.687  0.00  0.00    +0.000 A 
ATOM      8  C   LIG    1       -1.097  -1.337  -3.332  0.00  0.00    +0.000 A 
ATOM      9  C   LIG    1       -1.103  -0.655  -2.133  0.00  0.00    +0.010 A 
ENDBRANCH   2   4
BRANCH   3  10
ATOM     10  C   LIG    1        0.043  -2.180   1.138  0.00  0.00    +0.000 C 
ATOM     11  C   LIG    1       -1.193  -2.711   1.868  0.00  0.00    +0.020 C 
ATOM     12  C   LIG    1        1.305  -2.677   1.845  0.00  0.00    +0.030 C 
ENDBRANCH   3  10
TORSDOF 2
ENDMDL
MODEL      145
REMARK  Name = ZINC000016293552
REMARK                            x       y       z     vdW  Elec       q    Type
REMARK                         _______ _______ _______ _____ _____    ______ ____
ROOT
ATOM      1  C   LIG    1        0.022  -2.979  -2.136  0.00  0.00    +0.120 A 
ATOM      2  C   LIG    1        0.009  -2.443  -3.416  0.00  0.00    -0.070 A 
ATOM      3  C   LIG    1        0.010  -3.280  -4.514  0.00  0.00    +0.050 A 
ATOM      4  C   LIG    1        0.025  -4.652  -4.339  0.00  0.00    -0.120 A 
ATOM      5  C   LIG    1        0.039  -5.189  -3.065  0.00  0.00    +0.050 A 
ATOM      6  C   LIG    1        0.026  -5.563  -5.539  0.00  0.00    +0.100 C 
ATOM      7  C   LIG    1        0.043  -4.355  -1.963  0.00  0.00    -0.020 A 
ENDROOT
BRANCH   1   8
ATOM      8  O   LIG    1        0.021  -2.157  -1.054  0.00  0.00    -0.320 OA
BRANCH   8   9
ATOM      9  C   LIG    1       -0.000  -0.750  -1.307  0.00  0.00    +0.260 C 
BRANCH   9  11
ATOM     10  C   LIG    1       -0.018   1.503   0.010  0.00  0.00    +0.110 C 
ATOM     11  C   LIG    1        0.002  -0.004   0.002  0.00  0.00    -0.130 C 
ATOM     12  C   LIG    1        0.022  -0.666   1.134  0.00  0.00    +0.070 C 
ATOM     13 CL   LIG    1        0.024   0.194   2.642  0.00  0.00    -0.090 Cl
ENDBRANCH   9  11
ENDBRANCH   8   9
ENDBRANCH   1   8
TORSDOF 3
ENDMDL
MODEL      146
REMARK  Name = ZINC000032233372
REMARK                            x       y       z     vdW  Elec       q    Type
REMARK                         _______ _______ _______ _____ _____    ______ ____
ROOT
ATOM      1  C   LIG    1       -0.018   1.503   0.010  0.00  0.00    +0.100 C 
ATOM      2  C   LIG    1        0.002  -0.004   0.002  0.00  0.00    -0.120 A 
ATOM      3  C   LIG    1        0.006  -0.684  -1.197  0.00  0.00    +0.060 A 
ATOM      4  C   LIG    1        0.025  -2.077  -1.202  0.00  0.00    -0.100 A 
ATOM      5  C   LIG    1        0.040  -2.784   0.009  0.00  0.00    +0.140 A 
ATOM      6  N   LIG    1        0.057  -4.137  -0.276  0.00  0.00    -0.620 N 
ATOM      7  H   LIG    1        0.070  -4.844   0.389  0.00  0.00    +0.420 HD
ATOM      8  C   LIG    1        0.052  -4.339  -1.644  0.00  0.00    +0.140 A 
ATOM      9  C   LIG    1        0.064  -5.495  -2.420  0.00  0.00    -0.020 A 
ATOM     10  C   LIG    1        0.056  -5.402  -3.795  0.00  0.00    +0.050 A 
ATOM     11  C   LIG    1        0.036  -4.163  -4.418  0.00  0.00    -0.120 A 
ATOM     12  C   LIG    1        0.027  -4.080  -5.923  0.00  0.00    +0.100 C 
ATOM     13  C   LIG    1        0.025  -3.008  -3.667  0.00  0.00    +0.060 A 
ATOM     14  C   LIG    1        0.036  -2.079   1.209  0.00  0.00    -0.020 A 
ATOM     15  C   LIG    1        0.033  -3.087  -2.276  0.00  0.00    -0.100 A 
ATOM     16  C   LIG    1        0.023  -0.701   1.200  0.00  0.00    +0.050 A 
ENDROOT
TORSDOF 0
ENDMDL
MODEL      147
REMARK  Name = ZINC000071773078
REMARK                            x       y       z     vdW  Elec       q    Type
REMARK                         _______ _______ _______ _____ _____    ______ ____
ROOT
ATOM      1  C   LIG    1        1.444  -2.513  -2.505  0.00  0.00    -0.070 A 
ATOM      2  C   LIG    1        1.953  -1.602  -3.412  0.00  0.00    +0.020 A 
ATOM      3  C   LIG    1        2.600  -2.045  -4.549  0.00  0.00    -0.010 A 
ATOM      4  C   LIG    1        2.740  -3.405  -4.781  0.00  0.00    +0.100 A 
ATOM      5  C   LIG    1        2.228  -4.318  -3.870  0.00  0.00    -0.010 A 
ATOM      6  C   LIG    1        1.586  -3.870  -2.731  0.00  0.00    +0.020 A 
ENDROOT
BRANCH   1   7
ATOM      7  C   LIG    1        0.739  -2.027  -1.265  0.00  0.00    -0.020 C 
ATOM      8  C   LIG    1        1.479  -2.534  -0.026  0.00  0.00    +0.040 C 
BRANCH   7   9
ATOM      9  C   LIG    1       -0.696  -2.557  -1.254  0.00  0.00    +0.020 C 
ATOM     10  C   LIG    1       -1.436  -2.050  -2.494  0.00  0.00    +0.010 C 
ENDBRANCH   7   9
BRANCH   7  11
ATOM     11  C   LIG    1        0.718  -0.497  -1.257  0.00  0.00    +0.020 C 
BRANCH  11  13
ATOM     12  C   LIG    1       -0.019   1.526   0.010  0.00  0.00    +0.000 C 
ATOM     13  C   LIG    1        0.002  -0.004   0.002  0.00  0.00    +0.000 C 
ENDBRANCH  11  13
ENDBRANCH   7  11
ENDBRANCH   1   7
BRANCH   4  14
ATOM     14  O   LIG    1        3.376  -3.844  -5.899  0.00  0.00    -0.500 OA
ATOM     15  H   LIG    1        4.329  -3.966  -5.787  0.00  0.00    +0.390 HD
ENDBRANCH   4  14
TORSDOF 5
ENDMDL
MODEL      148
REMARK  Name = ZINC000098213337
REMARK                            x       y       z     vdW  Elec       q    Type
REMARK                         _______ _______ _______ _____ _____    ______ ____
ROOT
ATOM      1  C   LIG    1       -2.440   0.061   0.026  0.00  0.00    +0.060 C 
ENDROOT
BRANCH   1   4
ATOM      2  C   LIG    1       -0.018   1.503   0.010  0.00  0.00    +0.120 C 
ATOM      3  C   LIG    1        0.002  -0.004   0.002  0.00  0.00    -0.130 C 
ATOM      4  C   LIG    1       -1.125  -0.675   0.009  0.00  0.00    +0.010 C 
ATOM      5 BR   LIG    1        1.652  -0.927  -0.019  0.00  0.00    -0.070 Br
ENDBRANCH   1   4
BRANCH   1   6
ATOM      6  C   LIG    1       -3.300  -0.406  -1.150  0.00  0.00    +0.020 C 
BRANCH   6   7
ATOM      7  C   LIG    1       -4.635   0.341  -1.134  0.00  0.00    -0.030 C 
ATOM      8  C   LIG    1       -5.420  -0.046   0.121  0.00  0.00    +0.010 C 
ATOM      9  C   LIG    1       -5.444  -0.033  -2.377  0.00  0.00    +0.010 C 
ENDBRANCH   6   7
ENDBRANCH   1   6
TORSDOF 3
ENDMDL
MODEL      149
REMARK  Name = ZINC000034589521
REMARK                            x       y       z     vdW  Elec       q    Type
REMARK                         _______ _______ _______ _____ _____    ______ ____
ROOT
ATOM      1  N   LIG    1        0.020  -0.017   2.416  0.00  0.00    -0.690 N 
ATOM      2  H   LIG    1       -0.244   0.916   2.378  0.00  0.00    +0.410 HD
ENDROOT
BRANCH   1   9
ATOM      3  C   LIG    1        0.477   1.562   0.093  0.00  0.00    +0.090 C 
ATOM      4  C   LIG    1        0.730   0.077   0.111  0.00  0.00    -0.150 A 
ATOM      5  C   LIG    1        1.200  -0.558  -1.022  0.00  0.00    +0.040 A 
ATOM      6  C   LIG    1        1.432  -1.921  -1.007  0.00  0.00    -0.040 A 
ATOM      7  C   LIG    1        1.194  -2.654   0.141  0.00  0.00    +0.040 A 
ATOM      8  C   LIG    1        0.724  -2.025   1.278  0.00  0.00    -0.050 A 
ATOM      9  C   LIG    1        0.495  -0.655   1.268  0.00  0.00    +0.200 A 
ENDBRANCH   1   9
BRANCH   1  10
ATOM     10  C   LIG    1       -0.075  -0.721   3.619  0.00  0.00    +0.170 A 
ATOM     11  C   LIG    1        0.948  -1.577   4.007  0.00  0.00    -0.020 A 
ATOM     12  C   LIG    1        0.851  -2.272   5.197  0.00  0.00    +0.040 A 
ATOM     13  C   LIG    1       -0.264  -2.116   6.001  0.00  0.00    -0.020 A 
ATOM     14  C   LIG    1       -1.284  -1.265   5.618  0.00  0.00    +0.040 A 
ATOM     15  C   LIG    1       -1.190  -0.563   4.432  0.00  0.00    -0.030 A 
ENDBRANCH   1  10
TORSDOF 2
ENDMDL
MODEL      150
REMARK  Name = ZINC000019721535
REMARK                            x       y       z     vdW  Elec       q    Type
REMARK                         _______ _______ _______ _____ _____    ______ ____
ROOT
ATOM      1  C   LIG    1       -0.018   1.503   0.010  0.00  0.00    +0.100 C 
ATOM      2  C   LIG    1        0.002  -0.004   0.002  0.00  0.00    -0.080 A 
ATOM      3  C   LIG    1        0.006  -0.685  -1.213  0.00  0.00    +0.030 A 
ATOM      4  C   LIG    1        0.024  -2.045  -1.256  0.00  0.00    +0.050 A 
ATOM      5  C   LIG    1        0.040  -2.781  -0.059  0.00  0.00    +0.130 A 
ATOM      6  N   LIG    1        0.059  -4.118  -0.070  0.00  0.00    -0.460 NA
ATOM      7  C   LIG    1        0.074  -4.809   1.045  0.00  0.00    +0.200 A 
ATOM      8  C   LIG    1        0.072  -4.187   2.293  0.00  0.00    -0.120 A 
ATOM      9  C   LIG    1        0.053  -2.824   2.375  0.00  0.00    +0.100 A 
ATOM     10  C   LIG    1        0.091  -5.018   3.550  0.00  0.00    +0.120 C 
ATOM     11 CL   LIG    1        0.099  -6.543   0.964  0.00  0.00    -0.020 Cl
ATOM     12  C   LIG    1        0.037  -2.086   1.176  0.00  0.00    -0.090 A 
ATOM     13  C   LIG    1        0.022  -0.682   1.183  0.00  0.00    +0.030 A 
ENDROOT
TORSDOF 0
ENDMDL
MODEL      151
REMARK  Name = ZINC000019721533
REMARK                            x       y       z     vdW  Elec       q    Type
REMARK                         _______ _______ _______ _____ _____    ______ ____
ROOT
ATOM      1  C   LIG    1       -0.018   1.503   0.010  0.00  0.00    +0.110 C 
ATOM      2  C   LIG    1        0.002  -0.004   0.002  0.00  0.00    -0.050 A 
ATOM      3  C   LIG    1        0.006  -0.681  -1.179  0.00  0.00    +0.020 A 
ATOM      4  C   LIG    1        0.025  -2.074  -1.209  0.00  0.00    +0.030 A 
ATOM      5  C   LIG    1        0.040  -2.797  -0.056  0.00  0.00    +0.030 A 
ATOM      6  C   LIG    1        0.037  -2.133   1.181  0.00  0.00    -0.090 A 
ATOM      7  C   LIG    1        0.052  -2.845   2.395  0.00  0.00    +0.100 A 
ATOM      8  C   LIG    1        0.049  -2.132   3.560  0.00  0.00    -0.120 A 
ATOM      9  C   LIG    1        0.030  -0.738   3.523  0.00  0.00    +0.200 A 
ATOM     10  N   LIG    1        0.015  -0.078   2.389  0.00  0.00    -0.460 NA
ATOM     11 CL   LIG    1        0.026   0.147   5.016  0.00  0.00    -0.020 Cl
ATOM     12  C   LIG    1        0.065  -2.852   4.884  0.00  0.00    +0.120 C 
ATOM     13  C   LIG    1        0.023  -0.716   1.214  0.00  0.00    +0.140 A 
ENDROOT
TORSDOF 0
ENDMDL
MODEL      152
REMARK  Name = ZINC000019721832
REMARK                            x       y       z     vdW  Elec       q    Type
REMARK                         _______ _______ _______ _____ _____    ______ ____
ROOT
ATOM      1  C   LIG    1       -0.932   1.338   0.097  0.00  0.00    +0.100 C 
ATOM      2  C   LIG    1       -0.432  -0.082   0.043  0.00  0.00    -0.050 A 
ATOM      3  C   LIG    1       -0.422  -0.760  -1.174  0.00  0.00    +0.010 A 
ATOM      4  C   LIG    1        0.024  -2.044  -1.255  0.00  0.00    -0.050 A 
ATOM      5  C   LIG    1        0.481  -2.694  -0.098  0.00  0.00    -0.100 A 
ATOM      6  C   LIG    1        0.951  -4.022  -0.139  0.00  0.00    +0.030 A 
ATOM      7  C   LIG    1        1.381  -4.590   1.028  0.00  0.00    -0.020 A 
ATOM      8  C   LIG    1        1.345  -3.857   2.211  0.00  0.00    +0.320 A 
ATOM      9  N   LIG    1        0.907  -2.622   2.246  0.00  0.00    -0.470 NA
ATOM     10 CL   LIG    1        0.984  -4.911  -1.630  0.00  0.00    -0.040 Cl
ATOM     11  C   LIG    1        0.473  -2.007   1.141  0.00  0.00    +0.150 A 
ATOM     12  C   LIG    1        0.027  -2.763  -2.580  0.00  0.00    +0.100 C 
ATOM     13  C   LIG    1        0.009  -0.681   1.184  0.00  0.00    +0.030 A 
ENDROOT
TORSDOF 0
ENDMDL
MODEL      153
REMARK  Name = ZINC000019772255
REMARK                            x       y       z     vdW  Elec       q    Type
REMARK                         _______ _______ _______ _____ _____    ______ ____
ROOT
ATOM      1  C   LIG    1       -3.498  -0.035  -1.266  0.00  0.00    +0.230 A 
ATOM      2  C   LIG    1       -4.245  -0.283  -0.123  0.00  0.00    -0.060 A 
ATOM      3  C   LIG    1       -5.622  -0.170  -0.161  0.00  0.00    +0.060 A 
ATOM      4  C   LIG    1       -6.256   0.187  -1.337  0.00  0.00    -0.040 A 
ATOM      5  C   LIG    1       -5.515   0.434  -2.478  0.00  0.00    +0.070 A 
ATOM      6  C   LIG    1       -4.137   0.330  -2.445  0.00  0.00    -0.120 A 
ATOM      7 CL   LIG    1       -3.208   0.640  -3.878  0.00  0.00    -0.080 Cl
ENDROOT
BRANCH   1   8
ATOM      8  N   LIG    1       -2.105  -0.148  -1.230  0.00  0.00    -0.740 N 
ATOM      9  H   LIG    1       -1.584   0.029  -2.029  0.00  0.00    +0.400 HD
BRANCH   8  10
ATOM     10  C   LIG    1       -1.433  -0.534   0.013  0.00  0.00    +0.230 C 
ATOM     11  C   LIG    1       -1.413  -2.059   0.130  0.00  0.00    +0.020 C 
BRANCH  10  13
ATOM     12  C   LIG    1       -0.019   1.526   0.010  0.00  0.00    +0.030 C 
ATOM     13  C   LIG    1        0.002  -0.004   0.002  0.00  0.00    +0.020 C 
ENDBRANCH  10  13
ENDBRANCH   8  10
ENDBRANCH   1   8
TORSDOF 3
ENDMDL
MODEL      154
REMARK  Name = ZINC000019772244
REMARK                            x       y       z     vdW  Elec       q    Type
REMARK                         _______ _______ _______ _____ _____    ______ ____
ROOT
ATOM      1  C   LIG    1       -3.497  -0.036  -1.266  0.00  0.00    +0.230 A 
ATOM      2  C   LIG    1       -4.245  -0.283  -0.122  0.00  0.00    -0.070 A 
ATOM      3  C   LIG    1       -5.621  -0.170  -0.160  0.00  0.00    +0.070 A 
ATOM      4  C   LIG    1       -6.255   0.188  -1.335  0.00  0.00    -0.040 A 
ATOM      5  C   LIG    1       -5.513   0.435  -2.477  0.00  0.00    +0.020 A 
ATOM      6 CL   LIG    1       -6.314   0.884  -3.951  0.00  0.00    -0.070 Cl
ATOM      7  C   LIG    1       -4.136   0.330  -2.444  0.00  0.00    -0.060 A 
ENDROOT
BRANCH   1   8
ATOM      8  N   LIG    1       -2.105  -0.148  -1.230  0.00  0.00    -0.740 N 
ATOM      9  H   LIG    1       -1.584   0.029  -2.029  0.00  0.00    +0.400 HD
BRANCH   8  10
ATOM     10  C   LIG    1       -1.433  -0.534   0.013  0.00  0.00    +0.230 C 
ATOM     11  C   LIG    1       -1.413  -2.059   0.130  0.00  0.00    +0.020 C 
BRANCH  10  13
ATOM     12  C   LIG    1       -0.019   1.526   0.010  0.00  0.00    +0.030 C 
ATOM     13  C   LIG    1        0.002  -0.004   0.002  0.00  0.00    +0.020 C 
ENDBRANCH  10  13
ENDBRANCH   8  10
ENDBRANCH   1   8
TORSDOF 3
ENDMDL
MODEL      155
REMARK  Name = ZINC000019772356
REMARK                            x       y       z     vdW  Elec       q    Type
REMARK                         _______ _______ _______ _____ _____    ______ ____
ROOT
ATOM      1  C   LIG    1       -3.497  -0.036  -1.266  0.00  0.00    +0.230 A 
ATOM      2  C   LIG    1       -4.245  -0.283  -0.122  0.00  0.00    -0.090 A 
ATOM      3  C   LIG    1       -5.621  -0.170  -0.161  0.00  0.00    -0.040 A 
ATOM      4  C   LIG    1       -6.254   0.189  -1.336  0.00  0.00    -0.060 A 
ATOM      5  C   LIG    1       -5.513   0.436  -2.477  0.00  0.00    -0.040 A 
ATOM      6  C   LIG    1       -6.207   0.827  -3.756  0.00  0.00    +0.080 C 
ATOM      7  C   LIG    1       -6.433  -0.438   1.080  0.00  0.00    +0.080 C 
ATOM      8  C   LIG    1       -4.136   0.330  -2.444  0.00  0.00    -0.080 A 
ENDROOT
BRANCH   1   9
ATOM      9  N   LIG    1       -2.105  -0.148  -1.230  0.00  0.00    -0.740 N 
ATOM     10  H   LIG    1       -1.584   0.029  -2.029  0.00  0.00    +0.400 HD
BRANCH   9  11
ATOM     11  C   LIG    1       -1.433  -0.534   0.013  0.00  0.00    +0.230 C 
ATOM     12  C   LIG    1       -1.413  -2.059   0.130  0.00  0.00    +0.010 C 
BRANCH  11  14
ATOM     13  C   LIG    1       -0.019   1.526   0.010  0.00  0.00    +0.020 C 
ATOM     14  C   LIG    1        0.002  -0.004   0.002  0.00  0.00    +0.020 C 
ENDBRANCH  11  14
ENDBRANCH   9  11
ENDBRANCH   1   9
TORSDOF 3
ENDMDL
MODEL      156
REMARK  Name = ZINC000019772324
REMARK                            x       y       z     vdW  Elec       q    Type
REMARK                         _______ _______ _______ _____ _____    ______ ____
ROOT
ATOM      1  C   LIG    1        2.080  -0.591  -1.215  0.00  0.00    +0.210 A 
ATOM      2  C   LIG    1        2.815  -0.263  -0.083  0.00  0.00    -0.080 A 
ATOM      3  C   LIG    1        4.191  -0.378  -0.099  0.00  0.00    +0.050 A 
ATOM      4  C   LIG    1        4.837  -0.818  -1.239  0.00  0.00    -0.140 A 
ATOM      5  C   LIG    1        4.108  -1.146  -2.368  0.00  0.00    +0.050 A 
ATOM      6  C   LIG    1        2.732  -1.039  -2.357  0.00  0.00    -0.080 A 
ENDROOT
BRANCH   4   7
ATOM      7  C   LIG    1        6.339  -0.942  -1.252  0.00  0.00    +0.020 C 
ATOM      8  C   LIG    1        6.916  -0.036  -2.341  0.00  0.00    +0.020 C 
ATOM      9  C   LIG    1        6.729  -2.394  -1.537  0.00  0.00    +0.020 C 
ENDBRANCH   4   7
BRANCH   1  10
ATOM     10  N   LIG    1        0.688  -0.476  -1.203  0.00  0.00    -0.750 N 
ATOM     11  H   LIG    1        0.175  -0.710  -1.993  0.00  0.00    +0.400 HD
BRANCH  10  13
ATOM     12  C   LIG    1       -0.019   1.526   0.010  0.00  0.00    +0.010 C 
ATOM     13  C   LIG    1        0.002  -0.004   0.002  0.00  0.00    +0.220 C 
ATOM     14  C   LIG    1       -1.433  -0.534   0.013  0.00  0.00    +0.030 C 
ENDBRANCH  10  13
ENDBRANCH   1  10
TORSDOF 3
ENDMDL
MODEL      157
REMARK  Name = ZINC000095611649
REMARK                            x       y       z     vdW  Elec       q    Type
REMARK                         _______ _______ _______ _____ _____    ______ ____
ROOT
ATOM      1  C   LIG    1       -3.387  -6.495  -0.001  0.00  0.00    +0.240 C 
ENDROOT
BRANCH   1   3
ATOM      2  C   LIG    1       -2.262  -4.306   0.001  0.00  0.00    +0.000 C 
ATOM      3  C   LIG    1       -3.408  -4.988   0.008  0.00  0.00    -0.070 C 
BRANCH   2   5
ATOM      4  C   LIG    1       -1.123  -2.151   0.001  0.00  0.00    +0.000 C 
ATOM      5  C   LIG    1       -2.282  -2.841   0.009  0.00  0.00    -0.020 C 
BRANCH   4   8
ATOM      6  C   LIG    1       -0.018   1.503   0.010  0.00  0.00    +0.070 C 
ATOM      7  C   LIG    1        0.002  -0.004   0.002  0.00  0.00    -0.030 C 
ATOM      8  C   LIG    1       -1.143  -0.686   0.009  0.00  0.00    -0.030 C 
ENDBRANCH   4   8
ENDBRANCH   2   5
ENDBRANCH   1   3
BRANCH   1   9
ATOM      9  O   LIG    1       -2.038  -6.953   0.102  0.00  0.00    -0.560 OA
ATOM     10  H   LIG    1       -1.584  -6.666   0.906  0.00  0.00    +0.370 HD
ENDBRANCH   1   9
BRANCH   1  11
ATOM     11  C   LIG    1       -4.196  -7.022   1.186  0.00  0.00    -0.010 C 
BRANCH  11  12
ATOM     12  C   LIG    1       -4.280  -8.548   1.108  0.00  0.00    +0.010 C 
BRANCH  12  13
ATOM     13  C   LIG    1       -5.089  -9.075   2.295  0.00  0.00    +0.000 C 
BRANCH  13  14
ATOM     14  C   LIG    1       -5.173 -10.601   2.217  0.00  0.00    -0.010 C 
ATOM     15  C   LIG    1       -5.982 -11.129   3.403  0.00  0.00    +0.000 C 
ENDBRANCH  13  14
ENDBRANCH  12  13
ENDBRANCH  11  12
ENDBRANCH   1  11
TORSDOF 8
ENDMDL
MODEL      158
REMARK  Name = ZINC000063767556
REMARK                            x       y       z     vdW  Elec       q    Type
REMARK                         _______ _______ _______ _____ _____    ______ ____
ROOT
ATOM      1  C   LIG    1        0.589  -2.153  -0.998  0.00  0.00    -0.020 C 
ATOM      2  C   LIG    1       -0.113  -2.679   0.256  0.00  0.00    +0.020 C 
ATOM      3  C   LIG    1       -0.092  -4.209   0.247  0.00  0.00    -0.020 C 
ATOM      4  C   LIG    1        1.357  -4.699   0.231  0.00  0.00    +0.010 C 
ATOM      5  C   LIG    1        2.059  -4.173  -1.023  0.00  0.00    -0.020 C 
ATOM      6  C   LIG    1        1.333  -4.686  -2.268  0.00  0.00    +0.010 C 
ATOM      7  C   LIG    1       -0.116  -4.196  -2.251  0.00  0.00    -0.020 C 
ATOM      8  C   LIG    1       -0.819  -4.722  -0.998  0.00  0.00    +0.010 C 
ATOM      9  C   LIG    1        2.038  -2.643  -1.014  0.00  0.00    +0.020 C 
ATOM     10  C   LIG    1       -0.137  -2.666  -2.243  0.00  0.00    +0.020 C 
ENDROOT
BRANCH   1  13
ATOM     11  C   LIG    1       -0.018   1.503   0.010  0.00  0.00    +0.050 C 
ATOM     12  C   LIG    1        0.002  -0.004   0.002  0.00  0.00    -0.060 C 
ATOM     13  C   LIG    1        0.569  -0.646  -0.989  0.00  0.00    -0.040 C 
ENDBRANCH   1  13
TORSDOF 1
ENDMDL
MODEL      159
REMARK  Name = ZINC000095611654
REMARK                            x       y       z     vdW  Elec       q    Type
REMARK                         _______ _______ _______ _____ _____    ______ ____
ROOT
ATOM      1  C   LIG    1        1.948  -2.045   3.044  0.00  0.00    +0.010 C 
ATOM      2  C   LIG    1        1.463  -2.610   4.381  0.00  0.00    +0.010 C 
ATOM      3  C   LIG    1        2.128  -1.847   5.528  0.00  0.00    +0.000 C 
ATOM      4  C   LIG    1        3.647  -2.000   5.431  0.00  0.00    +0.000 C 
ATOM      5  C   LIG    1        4.132  -1.435   4.094  0.00  0.00    +0.000 C 
ATOM      6  C   LIG    1        3.467  -2.199   2.946  0.00  0.00    +0.010 C 
ENDROOT
BRANCH   1   8
ATOM      7  C   LIG    1        0.636  -2.135   0.968  0.00  0.00    -0.020 C 
ATOM      8  C   LIG    1        1.294  -2.797   1.914  0.00  0.00    -0.030 C 
BRANCH   7  11
ATOM      9  C   LIG    1        0.103   1.503  -0.068  0.00  0.00    +0.070 C 
ATOM     10  C   LIG    1        0.079  -0.004  -0.048  0.00  0.00    -0.040 C 
ATOM     11  C   LIG    1        0.659  -0.664   0.949  0.00  0.00    -0.020 C 
ENDBRANCH   7  11
ENDBRANCH   1   8
TORSDOF 2
ENDMDL
MODEL      160
REMARK  Name = ZINC000095611650
REMARK                            x       y       z     vdW  Elec       q    Type
REMARK                         _______ _______ _______ _____ _____    ______ ____
ROOT
ATOM      1  C   LIG    1       -3.387  -6.495  -0.001  0.00  0.00    +0.240 C 
ENDROOT
BRANCH   1   3
ATOM      2  C   LIG    1       -2.262  -4.306   0.001  0.00  0.00    +0.000 C 
ATOM      3  C   LIG    1       -3.408  -4.988   0.008  0.00  0.00    -0.070 C 
BRANCH   2   5
ATOM      4  C   LIG    1       -1.123  -2.151   0.001  0.00  0.00    +0.010 C 
ATOM      5  C   LIG    1       -2.282  -2.841   0.009  0.00  0.00    -0.010 C 
BRANCH   4   8
ATOM      6  C   LIG    1       -0.018   1.503   0.010  0.00  0.00    +0.070 C 
ATOM      7  C   LIG    1        0.002  -0.004   0.002  0.00  0.00    -0.030 C 
ATOM      8  C   LIG    1       -1.143  -0.686   0.009  0.00  0.00    -0.040 C 
ENDBRANCH   4   8
ENDBRANCH   2   5
ENDBRANCH   1   3
BRANCH   1   9
ATOM      9  O   LIG    1       -4.065  -6.974  -1.163  0.00  0.00    -0.560 OA
ATOM     10  H   LIG    1       -4.991  -6.701  -1.219  0.00  0.00    +0.370 HD
ENDBRANCH   1   9
BRANCH   1  11
ATOM     11  C   LIG    1       -4.089  -7.021   1.253  0.00  0.00    -0.010 C 
BRANCH  11  12
ATOM     12  C   LIG    1       -3.960  -8.545   1.308  0.00  0.00    +0.010 C 
BRANCH  12  13
ATOM     13  C   LIG    1       -4.662  -9.071   2.561  0.00  0.00    +0.000 C 
BRANCH  13  14
ATOM     14  C   LIG    1       -4.533 -10.595   2.616  0.00  0.00    -0.010 C 
ATOM     15  C   LIG    1       -5.236 -11.121   3.869  0.00  0.00    +0.000 C 
ENDBRANCH  13  14
ENDBRANCH  12  13
ENDBRANCH  11  12
ENDBRANCH   1  11
TORSDOF 8
ENDMDL
MODEL      161
REMARK  Name = ZINC000098175103
REMARK                            x       y       z     vdW  Elec       q    Type
REMARK                         _______ _______ _______ _____ _____    ______ ____
ROOT
ATOM      1  C   LIG    1        0.318  -2.344   0.822  0.00  0.00    -0.020 C 
ATOM      2  C   LIG    1        1.065  -2.837   1.805  0.00  0.00    -0.020 C 
ENDROOT
BRANCH   1   5
ATOM      3  C   LIG    1       -0.758   1.095  -0.446  0.00  0.00    +0.070 C 
ATOM      4  C   LIG    1       -0.591  -0.396  -0.301  0.00  0.00    -0.040 C 
ATOM      5  C   LIG    1        0.155  -0.888   0.681  0.00  0.00    -0.030 C 
ENDBRANCH   1   5
BRANCH   2   6
ATOM      6  C   LIG    1        1.232  -4.327   1.949  0.00  0.00    +0.010 C 
BRANCH   6   7
ATOM      7  C   LIG    1        0.706  -4.770   3.316  0.00  0.00    +0.000 C 
ATOM      8  C   LIG    1       -0.805  -4.537   3.380  0.00  0.00    +0.010 C 
ENDBRANCH   6   7
BRANCH   6   9
ATOM      9  C   LIG    1        2.714  -4.688   1.831  0.00  0.00    +0.000 C 
ATOM     10  C   LIG    1        3.205  -4.374   0.417  0.00  0.00    +0.010 C 
ENDBRANCH   6   9
ENDBRANCH   2   6
TORSDOF 4
ENDMDL
MODEL      162
REMARK  Name = ZINC000019877110
REMARK                            x       y       z     vdW  Elec       q    Type
REMARK                         _______ _______ _______ _____ _____    ______ ____
ROOT
ATOM      1  N   LIG    1        0.052  -2.796   2.391  0.00  0.00    -0.740 N 
ATOM      2  H   LIG    1        0.050  -2.318   3.234  0.00  0.00    +0.400 HD
ENDROOT
BRANCH   1   8
ATOM      3  C   LIG    1       -0.018   1.503   0.010  0.00  0.00    +0.080 C 
ATOM      4  C   LIG    1        0.002  -0.004   0.002  0.00  0.00    -0.040 A 
ATOM      5  C   LIG    1        0.006  -0.688  -1.200  0.00  0.00    -0.060 A 
ATOM      6  C   LIG    1        0.025  -2.071  -1.212  0.00  0.00    +0.050 A 
ATOM      7  C   LIG    1        0.040  -2.773  -0.023  0.00  0.00    -0.090 A 
ATOM      8  C   LIG    1        0.036  -2.089   1.186  0.00  0.00    +0.220 A 
ATOM      9  C   LIG    1        0.023  -0.700   1.195  0.00  0.00    -0.080 A 
ENDBRANCH   1   8
BRANCH   1  10
ATOM     10  C   LIG    1        0.072  -4.261   2.380  0.00  0.00    +0.230 C 
ATOM     11  C   LIG    1        1.516  -4.750   2.243  0.00  0.00    +0.010 C 
BRANCH  10  12
ATOM     12  C   LIG    1       -0.524  -4.789   3.686  0.00  0.00    +0.030 C 
BRANCH  12  13
ATOM     13  C   LIG    1       -2.003  -4.405   3.764  0.00  0.00    -0.030 C 
ATOM     14  C   LIG    1       -2.567  -4.824   5.123  0.00  0.00    +0.000 C 
ATOM     15  C   LIG    1       -2.773  -5.118   2.650  0.00  0.00    +0.010 C 
ENDBRANCH  12  13
ENDBRANCH  10  12
ENDBRANCH   1  10
TORSDOF 4
ENDMDL
MODEL      163
REMARK  Name = ZINC000019877143
REMARK                            x       y       z     vdW  Elec       q    Type
REMARK                         _______ _______ _______ _____ _____    ______ ____
ROOT
ATOM      1  N   LIG    1        2.148  -0.104   1.172  0.00  0.00    -0.740 N 
ATOM      2  H   LIG    1        2.812  -0.712   0.811  0.00  0.00    +0.400 HD
ENDROOT
BRANCH   1   3
ATOM      3  C   LIG    1        2.532   1.161   1.624  0.00  0.00    +0.220 A 
ATOM      4  C   LIG    1        1.584   2.031   2.146  0.00  0.00    -0.070 A 
ATOM      5  C   LIG    1        1.967   3.280   2.592  0.00  0.00    +0.050 A 
ATOM      6  C   LIG    1        3.293   3.665   2.521  0.00  0.00    -0.060 A 
ATOM      7  C   LIG    1        4.240   2.801   2.002  0.00  0.00    -0.040 A 
ATOM      8  C   LIG    1        5.684   3.224   1.925  0.00  0.00    +0.080 C 
ATOM      9  C   LIG    1        3.864   1.548   1.558  0.00  0.00    -0.080 A 
ENDBRANCH   1   3
BRANCH   1  10
ATOM     10  C   LIG    1        0.742  -0.511   1.242  0.00  0.00    +0.230 C 
BRANCH  10  12
ATOM     11  C   LIG    1       -0.019   1.526   0.010  0.00  0.00    +0.020 C 
ATOM     12  C   LIG    1        0.002  -0.004   0.002  0.00  0.00    -0.010 C 
ENDBRANCH  10  12
BRANCH  10  13
ATOM     13  C   LIG    1        0.655  -2.037   1.299  0.00  0.00    +0.020 C 
ATOM     14  C   LIG    1        1.286  -2.536   2.600  0.00  0.00    +0.020 C 
ENDBRANCH  10  13
ENDBRANCH   1  10
TORSDOF 4
ENDMDL
MODEL      164
REMARK  Name = ZINC000019877108
REMARK                            x       y       z     vdW  Elec       q    Type
REMARK                         _______ _______ _______ _____ _____    ______ ____
ROOT
ATOM      1  N   LIG    1        0.030  -2.845   2.534  0.00  0.00    -0.740 N 
ATOM      2  H   LIG    1        0.043  -2.456   3.422  0.00  0.00    +0.400 HD
ENDROOT
BRANCH   1   8
ATOM      3  C   LIG    1       -0.175   1.673   0.611  0.00  0.00    +0.080 C 
ATOM      4  C   LIG    1       -0.130   0.175   0.447  0.00  0.00    -0.040 A 
ATOM      5  C   LIG    1       -0.148  -0.382  -0.818  0.00  0.00    -0.060 A 
ATOM      6  C   LIG    1       -0.107  -1.756  -0.973  0.00  0.00    +0.050 A 
ATOM      7  C   LIG    1       -0.048  -2.575   0.136  0.00  0.00    -0.090 A 
ATOM      8  C   LIG    1       -0.030  -2.019   1.409  0.00  0.00    +0.220 A 
ATOM      9  C   LIG    1       -0.065  -0.639   1.561  0.00  0.00    -0.080 A 
ENDBRANCH   1   8
BRANCH   1  10
ATOM     10  C   LIG    1        0.074  -4.301   2.372  0.00  0.00    +0.230 C 
ATOM     11  C   LIG    1       -1.350  -4.841   2.232  0.00  0.00    +0.010 C 
BRANCH  10  12
ATOM     12  C   LIG    1        0.741  -4.931   3.596  0.00  0.00    +0.030 C 
BRANCH  12  13
ATOM     13  C   LIG    1        2.192  -4.456   3.687  0.00  0.00    -0.030 C 
ATOM     14  C   LIG    1        2.982  -5.000   2.495  0.00  0.00    +0.010 C 
ATOM     15  C   LIG    1        2.816  -4.968   4.988  0.00  0.00    +0.000 C 
ENDBRANCH  12  13
ENDBRANCH  10  12
ENDBRANCH   1  10
TORSDOF 4
ENDMDL
MODEL      165
REMARK  Name = ZINC000019877459
REMARK                            x       y       z     vdW  Elec       q    Type
REMARK                         _______ _______ _______ _____ _____    ______ ____
ROOT
ATOM      1  C   LIG    1       -0.018   1.503   0.010  0.00  0.00    +0.070 C 
ATOM      2  C   LIG    1        0.002  -0.004   0.002  0.00  0.00    -0.140 A 
ATOM      3  C   LIG    1        0.006  -0.687  -1.200  0.00  0.00    +0.040 A 
ATOM      4  C   LIG    1        0.025  -2.068  -1.211  0.00  0.00    -0.070 A 
ATOM      5  C   LIG    1        0.041  -2.771  -0.013  0.00  0.00    +0.220 A 
ATOM      6  C   LIG    1        0.037  -2.081   1.193  0.00  0.00    -0.160 A 
ATOM      7  C   LIG    1        0.054  -2.839   2.495  0.00  0.00    +0.090 C 
ATOM      8  C   LIG    1        0.023  -0.700   1.197  0.00  0.00    +0.050 A 
ENDROOT
BRANCH   5   9
ATOM      9  N   LIG    1        0.060  -4.167  -0.021  0.00  0.00    -0.740 N 
ATOM     10  H   LIG    1        0.071  -4.657   0.817  0.00  0.00    +0.400 HD
BRANCH   9  11
ATOM     11  C   LIG    1        0.065  -4.893  -1.294  0.00  0.00    +0.230 C 
ATOM     12  C   LIG    1        1.501  -5.016  -1.806  0.00  0.00    +0.020 C 
BRANCH  11  13
ATOM     13  C   LIG    1       -0.524  -6.290  -1.086  0.00  0.00    -0.030 C 
ATOM     14  C   LIG    1       -0.519  -7.047  -2.416  0.00  0.00    +0.030 C 
ATOM     15  C   LIG    1       -1.961  -6.167  -0.574  0.00  0.00    +0.030 C 
ENDBRANCH  11  13
ENDBRANCH   9  11
ENDBRANCH   5   9
TORSDOF 3
ENDMDL
MODEL      166
REMARK  Name = ZINC000019877457
REMARK                            x       y       z     vdW  Elec       q    Type
REMARK                         _______ _______ _______ _____ _____    ______ ____
ROOT
ATOM      1  C   LIG    1       -0.018   1.503   0.010  0.00  0.00    +0.070 C 
ATOM      2  C   LIG    1        0.002  -0.004   0.002  0.00  0.00    -0.140 A 
ATOM      3  C   LIG    1        0.006  -0.687  -1.200  0.00  0.00    +0.040 A 
ATOM      4  C   LIG    1        0.025  -2.068  -1.211  0.00  0.00    -0.070 A 
ATOM      5  C   LIG    1        0.041  -2.771  -0.013  0.00  0.00    +0.210 A 
ATOM      6  C   LIG    1        0.037  -2.081   1.193  0.00  0.00    -0.160 A 
ATOM      7  C   LIG    1        0.054  -2.839   2.495  0.00  0.00    +0.090 C 
ATOM      8  C   LIG    1        0.023  -0.700   1.197  0.00  0.00    +0.050 A 
ENDROOT
BRANCH   5   9
ATOM      9  N   LIG    1        0.060  -4.167  -0.021  0.00  0.00    -0.740 N 
ATOM     10  H   LIG    1        0.071  -4.657   0.817  0.00  0.00    +0.400 HD
BRANCH   9  11
ATOM     11  C   LIG    1        0.065  -4.893  -1.294  0.00  0.00    +0.230 C 
ATOM     12  C   LIG    1       -1.372  -5.057  -1.792  0.00  0.00    +0.020 C 
BRANCH  11  13
ATOM     13  C   LIG    1        0.695  -6.272  -1.092  0.00  0.00    -0.030 C 
ATOM     14  C   LIG    1        0.814  -6.981  -2.443  0.00  0.00    +0.030 C 
ATOM     15  C   LIG    1       -0.185  -7.103  -0.156  0.00  0.00    +0.020 C 
ENDBRANCH  11  13
ENDBRANCH   9  11
ENDBRANCH   5   9
TORSDOF 3
ENDMDL
MODEL      167
REMARK  Name = ZINC000019877361
REMARK                            x       y       z     vdW  Elec       q    Type
REMARK                         _______ _______ _______ _____ _____    ______ ____
ROOT
ATOM      1  C   LIG    1       -0.018   1.503   0.010  0.00  0.00    +0.070 C 
ATOM      2  C   LIG    1        0.002  -0.004   0.002  0.00  0.00    -0.140 A 
ATOM      3  C   LIG    1        0.006  -0.687  -1.200  0.00  0.00    +0.040 A 
ATOM      4  C   LIG    1        0.025  -2.068  -1.211  0.00  0.00    -0.070 A 
ATOM      5  C   LIG    1        0.041  -2.771  -0.013  0.00  0.00    +0.210 A 
ATOM      6  C   LIG    1        0.037  -2.081   1.193  0.00  0.00    -0.160 A 
ATOM      7  C   LIG    1        0.054  -2.839   2.495  0.00  0.00    +0.090 C 
ATOM      8  C   LIG    1        0.023  -0.700   1.197  0.00  0.00    +0.050 A 
ENDROOT
BRANCH   5   9
ATOM      9  N   LIG    1        0.060  -4.167  -0.021  0.00  0.00    -0.740 N 
ATOM     10  H   LIG    1        0.071  -4.657   0.817  0.00  0.00    +0.400 HD
BRANCH   9  11
ATOM     11  C   LIG    1        0.065  -4.893  -1.294  0.00  0.00    +0.230 C 
ATOM     12  C   LIG    1        1.514  -5.086  -1.787  0.00  0.00    +0.000 C 
ATOM     13  C   LIG    1        1.899  -6.502  -1.289  0.00  0.00    +0.020 C 
ATOM     14  C   LIG    1        0.586  -7.301  -1.482  0.00  0.00    +0.010 C 
ATOM     15  C   LIG    1       -0.525  -6.301  -1.100  0.00  0.00    +0.010 C 
ENDBRANCH   9  11
ENDBRANCH   5   9
TORSDOF 2
ENDMDL
MODEL      168
REMARK  Name = ZINC000002165434
REMARK                            x       y       z     vdW  Elec       q    Type
REMARK                         _______ _______ _______ _____ _____    ______ ____
ROOT
ATOM      1  C   LIG    1       -1.697  -4.553   1.364  0.00  0.00    -0.090 A 
ATOM      2  C   LIG    1       -1.157  -5.095   0.204  0.00  0.00    -0.010 A 
ATOM      3  C   LIG    1       -1.075  -6.466   0.059  0.00  0.00    +0.020 A 
ATOM      4  C   LIG    1       -1.531  -7.298   1.065  0.00  0.00    +0.010 A 
ATOM      5  C   LIG    1       -2.069  -6.762   2.220  0.00  0.00    +0.030 A 
ATOM      6  C   LIG    1       -2.148  -5.392   2.376  0.00  0.00    -0.070 A 
ATOM      7  C   LIG    1       -2.734  -4.808   3.635  0.00  0.00    +0.100 C 
ENDROOT
BRANCH   1   8
ATOM      8  S   LIG    1       -1.803  -2.804   1.554  0.00  0.00    -0.100 S 
BRANCH   8   9
ATOM      9  C   LIG    1       -1.103  -2.181   0.001  0.00  0.00    +0.100 C 
BRANCH   9  12
ATOM     10  C   LIG    1       -0.018   1.503   0.010  0.00  0.00    +0.070 C 
ATOM     11  C   LIG    1        0.002  -0.004   0.002  0.00  0.00    -0.020 C 
ATOM     12  C   LIG    1       -1.123  -0.674   0.009  0.00  0.00    -0.040 C 
ENDBRANCH   9  12
ENDBRANCH   8   9
ENDBRANCH   1   8
TORSDOF 3
ENDMDL
MODEL      169
REMARK  Name = ZINC000019900677
REMARK                            x       y       z     vdW  Elec       q    Type
REMARK                         _______ _______ _______ _____ _____    ______ ____
ROOT
ATOM      1  C   LIG    1        2.849   0.057  -2.394  0.00  0.00    +0.240 A 
ATOM      2  C   LIG    1        2.235  -0.176  -3.619  0.00  0.00    -0.080 A 
ATOM      3  C   LIG    1        2.951  -0.031  -4.792  0.00  0.00    +0.070 A 
ATOM      4  C   LIG    1        4.279   0.346  -4.752  0.00  0.00    -0.070 A 
ATOM      5  C   LIG    1        4.900   0.581  -3.530  0.00  0.00    -0.030 A 
ATOM      6  C   LIG    1        4.182   0.442  -2.350  0.00  0.00    -0.060 A 
ENDROOT
BRANCH   1   7
ATOM      7  N   LIG    1        2.125  -0.091  -1.209  0.00  0.00    -0.740 N 
ATOM      8  H   LIG    1        2.553   0.075  -0.355  0.00  0.00    +0.400 HD
BRANCH   7   9
ATOM      9  C   LIG    1        0.718  -0.497  -1.257  0.00  0.00    +0.230 C 
ATOM     10  C   LIG    1        0.630  -2.023  -1.329  0.00  0.00    +0.010 C 
BRANCH   9  12
ATOM     11  C   LIG    1       -0.019   1.526   0.010  0.00  0.00    +0.020 C 
ATOM     12  C   LIG    1        0.002  -0.004   0.002  0.00  0.00    +0.020 C 
ENDBRANCH   9  12
ENDBRANCH   7   9
ENDBRANCH   1   7
BRANCH   5  13
ATOM     13  S   LIG    1        6.595   1.062  -3.479  0.00  0.00    -0.120 S 
ATOM     14  C   LIG    1        7.058   1.108  -5.233  0.00  0.00    +0.130 C 
ENDBRANCH   5  13
TORSDOF 4
ENDMDL
MODEL      170
REMARK  Name = ZINC000019900874
REMARK                            x       y       z     vdW  Elec       q    Type
REMARK                         _______ _______ _______ _____ _____    ______ ____
ROOT
ATOM      1  C   LIG    1       -1.652  -1.775  -0.502  0.00  0.00    +0.230 A 
ATOM      2  C   LIG    1       -2.975  -2.268  -0.500  0.00  0.00    -0.100 A 
ATOM      3  C   LIG    1       -4.035  -1.505   0.014  0.00  0.00    +0.020 A 
ATOM      4  C   LIG    1       -5.299  -2.012  -0.001  0.00  0.00    -0.010 A 
ATOM      5  C   LIG    1       -5.557  -3.279  -0.520  0.00  0.00    +0.010 A 
ATOM      6  C   LIG    1       -4.554  -4.047  -1.026  0.00  0.00    +0.010 A 
ATOM      7  C   LIG    1       -3.236  -3.556  -1.028  0.00  0.00    -0.010 A 
ATOM      8  C   LIG    1       -2.175  -4.321  -1.543  0.00  0.00    -0.050 A 
ATOM      9  C   LIG    1       -0.909  -3.821  -1.532  0.00  0.00    +0.060 A 
ATOM     10  C   LIG    1       -0.641  -2.555  -1.022  0.00  0.00    -0.100 A 
ENDROOT
BRANCH   1  11
ATOM     11  N   LIG    1       -1.372  -0.511   0.012  0.00  0.00    -0.740 N 
ATOM     12  H   LIG    1       -2.087   0.033   0.377  0.00  0.00    +0.400 HD
BRANCH  11  14
ATOM     13  C   LIG    1       -0.019   1.526   0.010  0.00  0.00    +0.030 C 
ATOM     14  C   LIG    1        0.002  -0.004   0.002  0.00  0.00    +0.220 C 
ATOM     15  C   LIG    1        0.742  -0.511   1.242  0.00  0.00    +0.020 C 
ENDBRANCH  11  14
ENDBRANCH   1  11
TORSDOF 2
ENDMDL
MODEL      171
REMARK  Name = ZINC000019907262
REMARK                            x       y       z     vdW  Elec       q    Type
REMARK                         _______ _______ _______ _____ _____    ______ ____
ROOT
ATOM      1  C   LIG    1       -2.076  -0.647  -1.187  0.00  0.00    +0.220 A 
ATOM      2  C   LIG    1       -1.511  -0.211  -2.378  0.00  0.00    -0.080 A 
ATOM      3  C   LIG    1       -2.208  -0.348  -3.562  0.00  0.00    +0.040 A 
ATOM      4  C   LIG    1       -3.468  -0.919  -3.562  0.00  0.00    -0.060 A 
ATOM      5  C   LIG    1       -4.034  -1.354  -2.378  0.00  0.00    +0.050 A 
ATOM      6  C   LIG    1       -3.339  -1.224  -1.191  0.00  0.00    -0.150 A 
ENDROOT
BRANCH   6   7
ATOM      7  C   LIG    1       -3.957  -1.698   0.100  0.00  0.00    +0.020 C 
ATOM      8  C   LIG    1       -4.136  -3.217   0.052  0.00  0.00    +0.030 C 
ATOM      9  C   LIG    1       -5.320  -1.030   0.289  0.00  0.00    +0.030 C 
ENDBRANCH   6   7
BRANCH   1  10
ATOM     10  N   LIG    1       -1.373  -0.509   0.013  0.00  0.00    -0.750 N 
ATOM     11  H   LIG    1       -1.799  -0.739   0.853  0.00  0.00    +0.400 HD
BRANCH  10  13
ATOM     12  C   LIG    1        0.005   1.511  -0.003  0.00  0.00    +0.010 C 
ATOM     13  C   LIG    1        0.007  -0.019   0.001  0.00  0.00    +0.220 C 
ATOM     14  C   LIG    1        0.739  -0.525   1.246  0.00  0.00    +0.030 C 
ENDBRANCH  10  13
ENDBRANCH   1  10
TORSDOF 3
ENDMDL
MODEL      172
REMARK  Name = ZINC000019905436
REMARK                            x       y       z     vdW  Elec       q    Type
REMARK                         _______ _______ _______ _____ _____    ______ ____
ROOT
ATOM      1  C   LIG    1        0.027  -0.639   2.398  0.00  0.00    +0.210 A 
ATOM      2  C   LIG    1       -1.326  -0.333   2.475  0.00  0.00    -0.080 A 
ATOM      3  C   LIG    1       -1.998  -0.482   3.672  0.00  0.00    +0.050 A 
ATOM      4  C   LIG    1       -1.327  -0.935   4.793  0.00  0.00    -0.130 A 
ATOM      5  C   LIG    1        0.020  -1.240   4.719  0.00  0.00    +0.050 A 
ATOM      6  C   LIG    1        0.698  -1.099   3.524  0.00  0.00    -0.080 A 
ENDROOT
BRANCH   4   7
ATOM      7  C   LIG    1       -2.064  -1.097   6.097  0.00  0.00    -0.020 C 
ATOM      8  C   LIG    1       -2.638   0.254   6.529  0.00  0.00    +0.020 C 
ATOM      9  C   LIG    1       -1.099  -1.607   7.169  0.00  0.00    +0.040 C 
ATOM     10  C   LIG    1       -3.204  -2.101   5.917  0.00  0.00    +0.030 C 
ENDBRANCH   4   7
BRANCH   1  11
ATOM     11  N   LIG    1        0.711  -0.489   1.189  0.00  0.00    -0.750 N 
ATOM     12  H   LIG    1        1.654  -0.707   1.135  0.00  0.00    +0.400 HD
BRANCH  11  14
ATOM     13  C   LIG    1       -0.019   1.526   0.010  0.00  0.00    +0.010 C 
ATOM     14  C   LIG    1        0.002  -0.004   0.002  0.00  0.00    +0.220 C 
ATOM     15  C   LIG    1        0.718  -0.497  -1.257  0.00  0.00    +0.030 C 
ENDBRANCH  11  14
ENDBRANCH   1  11
TORSDOF 3
ENDMDL
MODEL      173
REMARK  Name = ZINC000053765113
REMARK                            x       y       z     vdW  Elec       q    Type
REMARK                         _______ _______ _______ _____ _____    ______ ____
ROOT
ATOM      1  C   LIG    1        1.251  -4.025  -2.642  0.00  0.00    +0.400 C 
ATOM      2  O   LIG    1        0.752  -4.640  -1.724  0.00  0.00    -0.450 OA
ENDROOT
BRANCH   1   3
ATOM      3  C   LIG    1        1.768  -4.746  -3.816  0.00  0.00    -0.170 A 
ATOM      4  C   LIG    1        2.349  -4.041  -4.875  0.00  0.00    +0.060 A 
ATOM      5  C   LIG    1        2.830  -4.724  -5.972  0.00  0.00    +0.000 A 
ATOM      6  C   LIG    1        2.739  -6.104  -6.027  0.00  0.00    +0.040 A 
ATOM      7  C   LIG    1        2.165  -6.809  -4.983  0.00  0.00    +0.000 A 
ATOM      8  C   LIG    1        1.685  -6.141  -3.877  0.00  0.00    +0.070 A 
ENDBRANCH   1   3
BRANCH   1   9
ATOM      9  C   LIG    1        1.343  -2.522  -2.581  0.00  0.00    +0.040 C 
BRANCH   9  10
ATOM     10  C   LIG    1        0.739  -2.027  -1.265  0.00  0.00    +0.000 C 
ATOM     11  C   LIG    1        1.584  -2.532  -0.094  0.00  0.00    +0.020 C 
BRANCH  10  12
ATOM     12  C   LIG    1        0.718  -0.497  -1.257  0.00  0.00    +0.000 C 
BRANCH  12  14
ATOM     13  C   LIG    1       -0.019   1.526   0.010  0.00  0.00    +0.000 C 
ATOM     14  C   LIG    1        0.002  -0.004   0.002  0.00  0.00    -0.010 C 
ENDBRANCH  12  14
ENDBRANCH  10  12
ENDBRANCH   9  10
ENDBRANCH   1   9
TORSDOF 5
ENDMDL
MODEL      174
REMARK  Name = ZINC000019918201
REMARK                            x       y       z     vdW  Elec       q    Type
REMARK                         _______ _______ _______ _____ _____    ______ ____
ROOT
ATOM      1  C   LIG    1        0.113   1.155  -3.004  0.00  0.00    +0.240 A 
ATOM      2  C   LIG    1        1.017   2.049  -2.446  0.00  0.00    -0.030 A 
ATOM      3  C   LIG    1        1.182   3.302  -3.004  0.00  0.00    +0.060 A 
ATOM      4  C   LIG    1        0.448   3.667  -4.119  0.00  0.00    +0.000 A 
ATOM      5  C   LIG    1       -0.456   2.776  -4.679  0.00  0.00    +0.120 A 
ATOM      6  F   LIG    1       -1.172   3.134  -5.767  0.00  0.00    -0.130 F 
ATOM      7  F   LIG    1        0.611   4.893  -4.663  0.00  0.00    -0.140 F 
ATOM      8  C   LIG    1       -0.619   1.519  -4.127  0.00  0.00    -0.070 A 
ENDROOT
BRANCH   1   9
ATOM      9  N   LIG    1       -0.055  -0.114  -2.441  0.00  0.00    -0.730 N 
ATOM     10  H   LIG    1       -0.683  -0.740  -2.833  0.00  0.00    +0.400 HD
BRANCH   9  11
ATOM     11  C   LIG    1        0.718  -0.497  -1.257  0.00  0.00    +0.230 C 
BRANCH  11  13
ATOM     12  C   LIG    1       -0.019   1.526   0.010  0.00  0.00    +0.010 C 
ATOM     13  C   LIG    1        0.002  -0.004   0.002  0.00  0.00    +0.000 C 
ENDBRANCH  11  13
BRANCH  11  14
ATOM     14  C   LIG    1        0.849  -2.021  -1.205  0.00  0.00    +0.020 C 
ATOM     15  C   LIG    1        1.673  -2.503  -2.400  0.00  0.00    +0.030 C 
ENDBRANCH  11  14
ENDBRANCH   9  11
ENDBRANCH   1   9
TORSDOF 4
ENDMDL
MODEL      175
REMARK  Name = ZINC000019920400
REMARK                            x       y       z     vdW  Elec       q    Type
REMARK                         _______ _______ _______ _____ _____    ______ ____
ROOT
ATOM      1  N   LIG    1       -1.413  -1.998   0.005  0.00  0.00    -0.740 N 
ATOM      2  H   LIG    1       -0.649  -2.471  -0.360  0.00  0.00    +0.400 HD
ENDROOT
BRANCH   1   3
ATOM      3  C   LIG    1       -2.495  -2.714   0.522  0.00  0.00    +0.230 A 
ATOM      4  C   LIG    1       -3.593  -2.039   1.040  0.00  0.00    -0.070 A 
ATOM      5  C   LIG    1       -4.662  -2.749   1.551  0.00  0.00    +0.070 A 
ATOM      6  C   LIG    1       -4.640  -4.132   1.548  0.00  0.00    -0.040 A 
ATOM      7  C   LIG    1       -3.547  -4.809   1.034  0.00  0.00    +0.020 A 
ATOM      8 CL   LIG    1       -3.524  -6.544   1.033  0.00  0.00    -0.070 Cl
ATOM      9  C   LIG    1       -2.478  -4.103   0.516  0.00  0.00    -0.060 A 
ENDBRANCH   1   3
BRANCH   1  10
ATOM     10  C   LIG    1       -1.433  -0.534   0.013  0.00  0.00    +0.230 C 
ATOM     11  C   LIG    1       -2.173  -0.027  -1.227  0.00  0.00    +0.020 C 
BRANCH  10  13
ATOM     12  C   LIG    1       -0.019   1.526   0.010  0.00  0.00    +0.030 C 
ATOM     13  C   LIG    1        0.002  -0.004   0.002  0.00  0.00    -0.030 C 
ATOM     14  C   LIG    1        0.742  -0.511   1.242  0.00  0.00    +0.030 C 
ENDBRANCH  10  13
ENDBRANCH   1  10
TORSDOF 3
ENDMDL
MODEL      176
REMARK  Name = ZINC000019920478
REMARK                            x       y       z     vdW  Elec       q    Type
REMARK                         _______ _______ _______ _____ _____    ______ ____
ROOT
ATOM      1  C   LIG    1        1.620  -3.899   2.632  0.00  0.00    +0.230 A 
ATOM      2  C   LIG    1        1.101  -4.804   1.716  0.00  0.00    -0.070 A 
ATOM      3  C   LIG    1        1.250  -6.161   1.928  0.00  0.00    +0.070 A 
ATOM      4  C   LIG    1        1.913  -6.619   3.051  0.00  0.00    -0.040 A 
ATOM      5  C   LIG    1        2.431  -5.719   3.967  0.00  0.00    +0.010 A 
ATOM      6 CL   LIG    1        3.264  -6.298   5.376  0.00  0.00    -0.070 Cl
ATOM      7  C   LIG    1        2.291  -4.360   3.757  0.00  0.00    -0.060 A 
ENDROOT
BRANCH   1   8
ATOM      8  N   LIG    1        1.471  -2.526   2.420  0.00  0.00    -0.750 N 
ATOM      9  H   LIG    1        1.837  -1.894   3.058  0.00  0.00    +0.400 HD
BRANCH   8  10
ATOM     10  C   LIG    1        0.763  -2.041   1.233  0.00  0.00    +0.240 C 
BRANCH  10  11
ATOM     11  C   LIG    1        0.742  -0.511   1.242  0.00  0.00    +0.010 C 
BRANCH  11  13
ATOM     12  C   LIG    1       -0.019   1.526   0.010  0.00  0.00    +0.010 C 
ATOM     13  C   LIG    1        0.002  -0.004   0.002  0.00  0.00    +0.020 C 
ENDBRANCH  11  13
ENDBRANCH  10  11
ENDBRANCH   8  10
ENDBRANCH   1   8
TORSDOF 4
ENDMDL
MODEL      177
REMARK  Name = ZINC000019920077
REMARK                            x       y       z     vdW  Elec       q    Type
REMARK                         _______ _______ _______ _____ _____    ______ ____
ROOT
ATOM      1  C   LIG    1       -0.018   1.503   0.010  0.00  0.00    +0.080 C 
ATOM      2  C   LIG    1        0.002  -0.004   0.002  0.00  0.00    -0.150 A 
ATOM      3  C   LIG    1        0.006  -0.687  -1.200  0.00  0.00    +0.050 A 
ATOM      4  C   LIG    1        0.025  -2.068  -1.211  0.00  0.00    -0.080 A 
ATOM      5  C   LIG    1        0.041  -2.771  -0.013  0.00  0.00    +0.220 A 
ATOM      6  C   LIG    1        0.037  -2.081   1.193  0.00  0.00    -0.080 A 
ATOM      7  C   LIG    1        0.023  -0.700   1.197  0.00  0.00    -0.040 A 
ATOM      8  C   LIG    1        0.019   0.049   2.505  0.00  0.00    +0.080 C 
ENDROOT
BRANCH   5   9
ATOM      9  N   LIG    1        0.060  -4.167  -0.021  0.00  0.00    -0.740 N 
ATOM     10  H   LIG    1        0.071  -4.657   0.817  0.00  0.00    +0.400 HD
BRANCH   9  11
ATOM     11  C   LIG    1        0.065  -4.893  -1.294  0.00  0.00    +0.230 C 
ATOM     12  C   LIG    1        1.514  -5.086  -1.787  0.00  0.00    +0.000 C 
ATOM     13  C   LIG    1        1.899  -6.502  -1.289  0.00  0.00    +0.020 C 
ATOM     14  C   LIG    1        0.586  -7.301  -1.482  0.00  0.00    +0.010 C 
ATOM     15  C   LIG    1       -0.525  -6.301  -1.100  0.00  0.00    +0.010 C 
ENDBRANCH   9  11
ENDBRANCH   5   9
TORSDOF 2
ENDMDL
MODEL      178
REMARK  Name = ZINC000019942663
REMARK                            x       y       z     vdW  Elec       q    Type
REMARK                         _______ _______ _______ _____ _____    ______ ____
ROOT
ATOM      1  N   LIG    1       -0.008  -0.140   2.444  0.00  0.00    -0.740 N 
ATOM      2  H   LIG    1       -0.606   0.624   2.426  0.00  0.00    +0.400 HD
ENDROOT
BRANCH   1   3
ATOM      3  C   LIG    1        0.136  -0.887   3.616  0.00  0.00    +0.230 A 
ATOM      4  C   LIG    1        0.995  -1.978   3.644  0.00  0.00    -0.060 A 
ATOM      5  C   LIG    1        1.136  -2.715   4.805  0.00  0.00    +0.060 A 
ATOM      6  C   LIG    1        0.423  -2.368   5.937  0.00  0.00    -0.040 A 
ATOM      7  C   LIG    1       -0.434  -1.282   5.913  0.00  0.00    +0.070 A 
ATOM      8  C   LIG    1       -0.575  -0.537   4.758  0.00  0.00    -0.120 A 
ATOM      9 CL   LIG    1       -1.650   0.826   4.728  0.00  0.00    -0.080 Cl
ENDBRANCH   1   3
BRANCH   1  10
ATOM     10  C   LIG    1        0.742  -0.511   1.242  0.00  0.00    +0.230 C 
ATOM     11  C   LIG    1        2.136   0.118   1.296  0.00  0.00    +0.020 C 
BRANCH  10  13
ATOM     12  C   LIG    1       -0.019   1.526   0.010  0.00  0.00    +0.020 C 
ATOM     13  C   LIG    1        0.002  -0.004   0.002  0.00  0.00    -0.020 C 
ATOM     14  C   LIG    1        0.718  -0.497  -1.257  0.00  0.00    +0.030 C 
ENDBRANCH  10  13
ENDBRANCH   1  10
TORSDOF 3
ENDMDL
MODEL      179
REMARK  Name = ZINC000019920251
REMARK                            x       y       z     vdW  Elec       q    Type
REMARK                         _______ _______ _______ _____ _____    ______ ____
ROOT
ATOM      1  C   LIG    1       -3.023  -3.947   0.010  0.00  0.00    +0.210 A 
ATOM      2  C   LIG    1       -1.957  -4.837   0.001  0.00  0.00    -0.080 A 
ATOM      3  C   LIG    1       -2.194  -6.197  -0.004  0.00  0.00    +0.050 A 
ATOM      4  C   LIG    1       -3.492  -6.674   0.001  0.00  0.00    -0.150 A 
ATOM      5  C   LIG    1       -4.557  -5.791   0.010  0.00  0.00    -0.040 A 
ATOM      6  C   LIG    1       -5.970  -6.316   0.016  0.00  0.00    +0.080 C 
ATOM      7  C   LIG    1       -3.747  -8.159  -0.004  0.00  0.00    +0.080 C 
ATOM      8  C   LIG    1       -4.326  -4.430   0.020  0.00  0.00    -0.070 A 
ENDROOT
BRANCH   1   9
ATOM      9  N   LIG    1       -2.787  -2.571   0.015  0.00  0.00    -0.750 N 
ATOM     10  H   LIG    1       -3.533  -1.950   0.025  0.00  0.00    +0.400 HD
BRANCH   9  11
ATOM     11  C   LIG    1       -1.413  -2.063   0.004  0.00  0.00    +0.240 C 
BRANCH  11  12
ATOM     12  C   LIG    1       -1.433  -0.534   0.013  0.00  0.00    +0.010 C 
BRANCH  12  14
ATOM     13  C   LIG    1       -0.019   1.526   0.010  0.00  0.00    +0.010 C 
ATOM     14  C   LIG    1        0.002  -0.004   0.002  0.00  0.00    +0.000 C 
ENDBRANCH  12  14
ENDBRANCH  11  12
ENDBRANCH   9  11
ENDBRANCH   1   9
TORSDOF 4
ENDMDL
MODEL      180
REMARK  Name = ZINC000019920402
REMARK                            x       y       z     vdW  Elec       q    Type
REMARK                         _______ _______ _______ _____ _____    ______ ____
ROOT
ATOM      1  N   LIG    1       -1.413  -1.998   0.005  0.00  0.00    -0.740 N 
ATOM      2  H   LIG    1       -0.642  -2.475   0.350  0.00  0.00    +0.400 HD
ENDROOT
BRANCH   1   3
ATOM      3  C   LIG    1       -2.505  -2.709  -0.500  0.00  0.00    +0.230 A 
ATOM      4  C   LIG    1       -3.608  -2.028  -1.000  0.00  0.00    -0.070 A 
ATOM      5  C   LIG    1       -4.686  -2.733  -1.498  0.00  0.00    +0.070 A 
ATOM      6  C   LIG    1       -4.669  -4.115  -1.501  0.00  0.00    -0.040 A 
ATOM      7  C   LIG    1       -3.572  -4.798  -1.003  0.00  0.00    +0.020 A 
ATOM      8 CL   LIG    1       -3.555  -6.534  -1.007  0.00  0.00    -0.070 Cl
ATOM      9  C   LIG    1       -2.488  -4.098  -0.508  0.00  0.00    -0.060 A 
ENDBRANCH   1   3
BRANCH   1  10
ATOM     10  C   LIG    1       -1.433  -0.534   0.013  0.00  0.00    +0.230 C 
ATOM     11  C   LIG    1       -2.149  -0.040   1.272  0.00  0.00    +0.020 C 
BRANCH  10  13
ATOM     12  C   LIG    1       -0.019   1.526   0.010  0.00  0.00    +0.030 C 
ATOM     13  C   LIG    1        0.002  -0.004   0.002  0.00  0.00    -0.020 C 
ATOM     14  C   LIG    1        0.742  -0.511   1.242  0.00  0.00    +0.020 C 
ENDBRANCH  10  13
ENDBRANCH   1  10
TORSDOF 3
ENDMDL
MODEL      181
REMARK  Name = ZINC000019921165
REMARK                            x       y       z     vdW  Elec       q    Type
REMARK                         _______ _______ _______ _____ _____    ______ ____
ROOT
ATOM      1  N   LIG    1       -1.413  -1.998   0.005  0.00  0.00    -0.740 N 
ATOM      2  H   LIG    1       -0.649  -2.471  -0.360  0.00  0.00    +0.400 HD
ENDROOT
BRANCH   1   3
ATOM      3  C   LIG    1       -2.496  -2.715   0.523  0.00  0.00    +0.230 A 
ATOM      4  C   LIG    1       -3.594  -2.039   1.040  0.00  0.00    -0.060 A 
ATOM      5  C   LIG    1       -4.662  -2.750   1.552  0.00  0.00    +0.070 A 
ATOM      6  C   LIG    1       -4.639  -4.133   1.549  0.00  0.00    -0.100 A 
ATOM      7  C   LIG    1       -3.547  -4.809   1.034  0.00  0.00    +0.070 A 
ATOM      8 CL   LIG    1       -5.984  -5.023   2.192  0.00  0.00    -0.080 Cl
ATOM      9  C   LIG    1       -2.478  -4.104   0.516  0.00  0.00    -0.060 A 
ENDBRANCH   1   3
BRANCH   1  10
ATOM     10  C   LIG    1       -1.433  -0.534   0.013  0.00  0.00    +0.230 C 
ATOM     11  C   LIG    1       -2.173  -0.027  -1.227  0.00  0.00    +0.020 C 
BRANCH  10  13
ATOM     12  C   LIG    1       -0.019   1.526   0.010  0.00  0.00    +0.030 C 
ATOM     13  C   LIG    1        0.002  -0.004   0.002  0.00  0.00    -0.030 C 
ATOM     14  C   LIG    1        0.742  -0.511   1.242  0.00  0.00    +0.030 C 
ENDBRANCH  10  13
ENDBRANCH   1  10
TORSDOF 3
ENDMDL
MODEL      182
REMARK  Name = ZINC000019942665
REMARK                            x       y       z     vdW  Elec       q    Type
REMARK                         _______ _______ _______ _____ _____    ______ ____
ROOT
ATOM      1  N   LIG    1        0.056  -0.038   2.447  0.00  0.00    -0.740 N 
ATOM      2  H   LIG    1       -0.888   0.180   2.413  0.00  0.00    +0.400 HD
ENDROOT
BRANCH   1   3
ATOM      3  C   LIG    1        0.763   0.098   3.645  0.00  0.00    +0.230 A 
ATOM      4  C   LIG    1        2.116  -0.208   3.693  0.00  0.00    -0.060 A 
ATOM      5  C   LIG    1        2.812  -0.072   4.879  0.00  0.00    +0.060 A 
ATOM      6  C   LIG    1        2.163   0.368   6.017  0.00  0.00    -0.040 A 
ATOM      7  C   LIG    1        0.815   0.674   5.973  0.00  0.00    +0.070 A 
ATOM      8  C   LIG    1        0.114   0.546   4.790  0.00  0.00    -0.120 A 
ATOM      9 CL   LIG    1       -1.578   0.931   4.735  0.00  0.00    -0.080 Cl
ENDBRANCH   1   3
BRANCH   1  10
ATOM     10  C   LIG    1        0.742  -0.511   1.242  0.00  0.00    +0.230 C 
ATOM     11  C   LIG    1        0.763  -2.041   1.233  0.00  0.00    +0.020 C 
BRANCH  10  13
ATOM     12  C   LIG    1       -0.019   1.526   0.010  0.00  0.00    +0.030 C 
ATOM     13  C   LIG    1        0.002  -0.004   0.002  0.00  0.00    -0.030 C 
ATOM     14  C   LIG    1        0.718  -0.497  -1.257  0.00  0.00    +0.030 C 
ENDBRANCH  10  13
ENDBRANCH   1  10
TORSDOF 3
ENDMDL
MODEL      183
REMARK  Name = ZINC000019955915
REMARK                            x       y       z     vdW  Elec       q    Type
REMARK                         _______ _______ _______ _____ _____    ______ ____
ROOT
ATOM      1  C   LIG    1        0.116   0.393  -3.682  0.00  0.00    +0.240 A 
ATOM      2  C   LIG    1        1.461   0.203  -3.973  0.00  0.00    -0.080 A 
ATOM      3  C   LIG    1        1.920   0.385  -5.263  0.00  0.00    +0.090 A 
ATOM      4  C   LIG    1        1.043   0.755  -6.265  0.00  0.00    -0.180 A 
ATOM      5  C   LIG    1       -0.299   0.946  -5.979  0.00  0.00    +0.140 A 
ATOM      6  F   LIG    1       -1.155   1.308  -6.960  0.00  0.00    -0.140 F 
ATOM      7  C   LIG    1        1.547   0.953  -7.672  0.00  0.00    +0.090 C 
ATOM      8  C   LIG    1       -0.765   0.760  -4.690  0.00  0.00    -0.100 A 
ENDROOT
BRANCH   1   9
ATOM      9  N   LIG    1       -0.349   0.210  -2.377  0.00  0.00    -0.730 N 
ATOM     10  H   LIG    1       -1.301   0.240  -2.194  0.00  0.00    +0.400 HD
BRANCH   9  11
ATOM     11  C   LIG    1        0.600  -0.028  -1.287  0.00  0.00    +0.230 C 
BRANCH  11  13
ATOM     12  C   LIG    1        0.633   2.387  -0.648  0.00  0.00    +0.010 C 
ATOM     13  C   LIG    1        0.338   0.969  -0.156  0.00  0.00    +0.000 C 
ENDBRANCH  11  13
BRANCH  11  14
ATOM     14  C   LIG    1        0.426  -1.454  -0.761  0.00  0.00    -0.010 C 
ATOM     15  C   LIG    1        0.823  -2.452  -1.851  0.00  0.00    +0.010 C 
ENDBRANCH  11  14
ENDBRANCH   9  11
ENDBRANCH   1   9
TORSDOF 4
ENDMDL
MODEL      184
REMARK  Name = ZINC000019955359
REMARK                            x       y       z     vdW  Elec       q    Type
REMARK                         _______ _______ _______ _____ _____    ______ ____
ROOT
ATOM      1  C   LIG    1       -1.412  -0.526   0.013  0.00  0.00    -0.140 A 
ATOM      2  C   LIG    1       -2.049  -0.766   1.216  0.00  0.00    +0.050 A 
ATOM      3  C   LIG    1       -3.345  -1.244   1.230  0.00  0.00    -0.080 A 
ATOM      4  C   LIG    1       -4.008  -1.483   0.032  0.00  0.00    +0.220 A 
ATOM      5  C   LIG    1       -3.364  -1.241  -1.175  0.00  0.00    -0.080 A 
ATOM      6  C   LIG    1       -2.070  -0.758  -1.181  0.00  0.00    +0.050 A 
ENDROOT
BRANCH   1   8
ATOM      7  C   LIG    1       -0.019   1.526   0.010  0.00  0.00    +0.000 C 
ATOM      8  C   LIG    1        0.002  -0.004   0.002  0.00  0.00    +0.060 C 
ENDBRANCH   1   8
BRANCH   4   9
ATOM      9  N   LIG    1       -5.318  -1.966   0.042  0.00  0.00    -0.740 N 
ATOM     10  H   LIG    1       -5.767  -2.135   0.886  0.00  0.00    +0.400 HD
BRANCH   9  11
ATOM     11  C   LIG    1       -6.015  -2.219  -1.221  0.00  0.00    +0.230 C 
ATOM     12  C   LIG    1       -6.653  -0.921  -1.720  0.00  0.00    +0.020 C 
BRANCH  11  13
ATOM     13  C   LIG    1       -7.104  -3.271  -1.001  0.00  0.00    -0.030 C 
ATOM     14  C   LIG    1       -6.466  -4.569  -0.503  0.00  0.00    +0.020 C 
ATOM     15  C   LIG    1       -7.833  -3.534  -2.321  0.00  0.00    +0.030 C 
ENDBRANCH  11  13
ENDBRANCH   9  11
ENDBRANCH   4   9
TORSDOF 4
ENDMDL
MODEL      185
REMARK  Name = ZINC000019955354
REMARK                            x       y       z     vdW  Elec       q    Type
REMARK                         _______ _______ _______ _____ _____    ______ ____
ROOT
ATOM      1  C   LIG    1       -1.412  -0.526   0.013  0.00  0.00    -0.140 A 
ATOM      2  C   LIG    1       -2.049  -0.766   1.216  0.00  0.00    +0.050 A 
ATOM      3  C   LIG    1       -3.345  -1.244   1.230  0.00  0.00    -0.080 A 
ATOM      4  C   LIG    1       -4.008  -1.483   0.032  0.00  0.00    +0.210 A 
ATOM      5  C   LIG    1       -3.364  -1.241  -1.175  0.00  0.00    -0.080 A 
ATOM      6  C   LIG    1       -2.070  -0.758  -1.181  0.00  0.00    +0.050 A 
ENDROOT
BRANCH   1   8
ATOM      7  C   LIG    1       -0.019   1.526   0.010  0.00  0.00    +0.000 C 
ATOM      8  C   LIG    1        0.002  -0.004   0.002  0.00  0.00    +0.060 C 
ENDBRANCH   1   8
BRANCH   4   9
ATOM      9  N   LIG    1       -5.318  -1.966   0.042  0.00  0.00    -0.740 N 
ATOM     10  H   LIG    1       -5.767  -2.135   0.886  0.00  0.00    +0.400 HD
BRANCH   9  11
ATOM     11  C   LIG    1       -6.015  -2.219  -1.221  0.00  0.00    +0.230 C 
ATOM     12  C   LIG    1       -5.660  -3.617  -1.730  0.00  0.00    +0.020 C 
BRANCH  11  13
ATOM     13  C   LIG    1       -7.526  -2.127  -0.997  0.00  0.00    -0.030 C 
ATOM     14  C   LIG    1       -7.953  -3.170   0.038  0.00  0.00    +0.020 C 
ATOM     15  C   LIG    1       -8.254  -2.390  -2.317  0.00  0.00    +0.030 C 
ENDBRANCH  11  13
ENDBRANCH   9  11
ENDBRANCH   4   9
TORSDOF 4
ENDMDL
MODEL      186
REMARK  Name = ZINC000019956633
REMARK                            x       y       z     vdW  Elec       q    Type
REMARK                         _______ _______ _______ _____ _____    ______ ____
ROOT
ATOM      1  C   LIG    1        0.731  -0.503   1.223  0.00  0.00    -0.160 A 
ATOM      2  C   LIG    1        2.076  -0.808   1.149  0.00  0.00    +0.050 A 
ATOM      3  C   LIG    1        2.745  -1.267   2.269  0.00  0.00    -0.060 A 
ATOM      4  C   LIG    1        2.071  -1.421   3.466  0.00  0.00    +0.040 A 
ATOM      5  C   LIG    1        0.726  -1.118   3.547  0.00  0.00    -0.080 A 
ATOM      6  C   LIG    1        0.052  -0.652   2.426  0.00  0.00    +0.220 A 
ENDROOT
BRANCH   1   8
ATOM      7  C   LIG    1       -0.019   1.526   0.010  0.00  0.00    +0.020 C 
ATOM      8  C   LIG    1        0.002  -0.004   0.002  0.00  0.00    +0.050 C 
ENDBRANCH   1   8
BRANCH   6   9
ATOM      9  N   LIG    1       -1.308  -0.344   2.505  0.00  0.00    -0.740 N 
ATOM     10  H   LIG    1       -1.778  -0.019   1.721  0.00  0.00    +0.400 HD
BRANCH   9  11
ATOM     11  C   LIG    1       -2.025  -0.513   3.771  0.00  0.00    +0.230 C 
ATOM     12  C   LIG    1       -1.842   0.739   4.631  0.00  0.00    +0.020 C 
BRANCH  11  13
ATOM     13  C   LIG    1       -3.514  -0.725   3.490  0.00  0.00    -0.030 C 
ATOM     14  C   LIG    1       -4.263  -0.901   4.812  0.00  0.00    +0.030 C 
ATOM     15  C   LIG    1       -3.697  -1.977   2.629  0.00  0.00    +0.030 C 
ENDBRANCH  11  13
ENDBRANCH   9  11
ENDBRANCH   6   9
TORSDOF 4
ENDMDL
MODEL      187
REMARK  Name = ZINC000019952582
REMARK                            x       y       z     vdW  Elec       q    Type
REMARK                         _______ _______ _______ _____ _____    ______ ____
ROOT
ATOM      1  C   LIG    1       -0.018   1.503   0.010  0.00  0.00    +0.080 C 
ATOM      2  C   LIG    1        0.002  -0.004   0.002  0.00  0.00    -0.040 A 
ATOM      3  C   LIG    1        0.006  -0.688  -1.200  0.00  0.00    -0.060 A 
ATOM      4  C   LIG    1        0.025  -2.071  -1.212  0.00  0.00    -0.040 A 
ATOM      5  C   LIG    1        0.041  -2.773  -0.023  0.00  0.00    -0.080 A 
ATOM      6  C   LIG    1        0.037  -2.089   1.186  0.00  0.00    +0.220 A 
ATOM      7  C   LIG    1        0.029  -2.812  -2.524  0.00  0.00    +0.080 C 
ATOM      8  C   LIG    1        0.023  -0.700   1.195  0.00  0.00    -0.090 A 
ENDROOT
BRANCH   6   9
ATOM      9  N   LIG    1        0.053  -2.796   2.390  0.00  0.00    -0.740 N 
ATOM     10  H   LIG    1        0.067  -3.766   2.383  0.00  0.00    +0.400 HD
BRANCH   9  11
ATOM     11  C   LIG    1        0.049  -2.073   3.665  0.00  0.00    +0.230 C 
ATOM     12  C   LIG    1       -1.401  -1.786   4.104  0.00  0.00    +0.000 C 
ATOM     13  C   LIG    1       -1.742  -2.946   5.072  0.00  0.00    +0.020 C 
ATOM     14  C   LIG    1       -0.412  -3.155   5.838  0.00  0.00    +0.010 C 
ATOM     15  C   LIG    1        0.678  -2.944   4.766  0.00  0.00    +0.010 C 
ENDBRANCH   9  11
ENDBRANCH   6   9
TORSDOF 2
ENDMDL
MODEL      188
REMARK  Name = ZINC000019956371
REMARK                            x       y       z     vdW  Elec       q    Type
REMARK                         _______ _______ _______ _____ _____    ______ ____
ROOT
ATOM      1  C   LIG    1       -1.412  -0.526   0.013  0.00  0.00    -0.160 A 
ATOM      2  C   LIG    1       -2.015  -0.864   1.208  0.00  0.00    +0.050 A 
ATOM      3  C   LIG    1       -3.312  -1.343   1.219  0.00  0.00    -0.060 A 
ATOM      4  C   LIG    1       -4.010  -1.485   0.034  0.00  0.00    +0.040 A 
ATOM      5  C   LIG    1       -3.413  -1.148  -1.166  0.00  0.00    -0.080 A 
ATOM      6  C   LIG    1       -2.112  -0.662  -1.180  0.00  0.00    +0.220 A 
ENDROOT
BRANCH   1   8
ATOM      7  C   LIG    1       -0.019   1.526   0.010  0.00  0.00    +0.020 C 
ATOM      8  C   LIG    1        0.002  -0.004   0.002  0.00  0.00    +0.050 C 
ENDBRANCH   1   8
BRANCH   6   9
ATOM      9  N   LIG    1       -1.505  -0.320  -2.390  0.00  0.00    -0.740 N 
ATOM     10  H   LIG    1       -0.597   0.020  -2.399  0.00  0.00    +0.400 HD
BRANCH   9  11
ATOM     11  C   LIG    1       -2.241  -0.475  -3.648  0.00  0.00    +0.230 C 
ATOM     12  C   LIG    1       -3.054   0.802  -3.945  0.00  0.00    +0.000 C 
ATOM     13  C   LIG    1       -2.143   1.620  -4.893  0.00  0.00    +0.020 C 
ATOM     14  C   LIG    1       -1.505   0.525  -5.784  0.00  0.00    +0.010 C 
ATOM     15  C   LIG    1       -1.256  -0.651  -4.817  0.00  0.00    +0.010 C 
ENDBRANCH   9  11
ENDBRANCH   6   9
TORSDOF 3
ENDMDL
MODEL      189
REMARK  Name = ZINC000019956002
REMARK                            x       y       z     vdW  Elec       q    Type
REMARK                         _______ _______ _______ _____ _____    ______ ____
ROOT
ATOM      1  C   LIG    1       -0.018   1.503   0.010  0.00  0.00    +0.090 C 
ATOM      2  C   LIG    1        0.002  -0.004   0.002  0.00  0.00    -0.180 A 
ATOM      3  C   LIG    1        0.006  -0.687  -1.200  0.00  0.00    +0.090 A 
ATOM      4  C   LIG    1        0.024  -2.068  -1.211  0.00  0.00    -0.070 A 
ATOM      5  C   LIG    1        0.039  -2.772  -0.014  0.00  0.00    +0.240 A 
ATOM      6  C   LIG    1        0.036  -2.085   1.193  0.00  0.00    -0.100 A 
ATOM      7  C   LIG    1        0.023  -0.702   1.199  0.00  0.00    +0.140 A 
ATOM      8  F   LIG    1        0.020  -0.031   2.372  0.00  0.00    -0.140 F 
ENDROOT
BRANCH   5   9
ATOM      9  N   LIG    1        0.058  -4.169  -0.023  0.00  0.00    -0.740 N 
ATOM     10  H   LIG    1        0.061  -4.648  -0.866  0.00  0.00    +0.400 HD
BRANCH   9  11
ATOM     11  C   LIG    1        0.074  -4.910   1.241  0.00  0.00    +0.230 C 
ATOM     12  C   LIG    1       -1.358  -5.079   1.751  0.00  0.00    +0.020 C 
BRANCH  11  13
ATOM     13  C   LIG    1        0.702  -6.287   1.016  0.00  0.00    -0.020 C 
ATOM     14  C   LIG    1       -0.120  -7.060  -0.018  0.00  0.00    +0.020 C 
ATOM     15  C   LIG    1        0.718  -7.061   2.336  0.00  0.00    +0.030 C 
ENDBRANCH  11  13
ENDBRANCH   9  11
ENDBRANCH   5   9
TORSDOF 3
ENDMDL
MODEL      190
REMARK  Name = ZINC000019955124
REMARK                            x       y       z     vdW  Elec       q    Type
REMARK                         _______ _______ _______ _____ _____    ______ ____
ROOT
ATOM      1  C   LIG    1        0.731  -0.503   1.223  0.00  0.00    -0.140 A 
ATOM      2  C   LIG    1        2.098  -0.709   1.174  0.00  0.00    +0.050 A 
ATOM      3  C   LIG    1        2.769  -1.167   2.291  0.00  0.00    -0.070 A 
ATOM      4  C   LIG    1        2.069  -1.420   3.465  0.00  0.00    +0.210 A 
ATOM      5  C   LIG    1        0.697  -1.212   3.510  0.00  0.00    -0.080 A 
ATOM      6  C   LIG    1        0.033  -0.749   2.391  0.00  0.00    +0.050 A 
ENDROOT
BRANCH   1   8
ATOM      7  C   LIG    1       -0.019   1.526   0.010  0.00  0.00    +0.000 C 
ATOM      8  C   LIG    1        0.002  -0.004   0.002  0.00  0.00    +0.060 C 
ENDBRANCH   1   8
BRANCH   4   9
ATOM      9  N   LIG    1        2.745  -1.882   4.596  0.00  0.00    -0.740 N 
ATOM     10  H   LIG    1        3.704  -2.027   4.564  0.00  0.00    +0.400 HD
BRANCH   9  11
ATOM     11  C   LIG    1        2.006  -2.149   5.833  0.00  0.00    +0.230 C 
ATOM     12  C   LIG    1        1.472  -3.596   5.828  0.00  0.00    +0.000 C 
ATOM     13  C   LIG    1        2.540  -4.398   6.613  0.00  0.00    +0.020 C 
ATOM     14  C   LIG    1        2.951  -3.412   7.734  0.00  0.00    +0.010 C 
ATOM     15  C   LIG    1        2.946  -2.031   7.045  0.00  0.00    +0.010 C 
ENDBRANCH   9  11
ENDBRANCH   4   9
TORSDOF 3
ENDMDL
MODEL      191
REMARK  Name = ZINC000019953522
REMARK                            x       y       z     vdW  Elec       q    Type
REMARK                         _______ _______ _______ _____ _____    ______ ____
ROOT
ATOM      1  C   LIG    1       -0.018   1.503   0.010  0.00  0.00    +0.100 C 
ATOM      2  C   LIG    1        0.002  -0.004   0.002  0.00  0.00    -0.180 A 
ATOM      3  C   LIG    1        0.006  -0.688  -1.198  0.00  0.00    +0.090 A 
ATOM      4  C   LIG    1        0.024  -2.071  -1.207  0.00  0.00    -0.080 A 
ATOM      5  C   LIG    1        0.039  -2.774  -0.014  0.00  0.00    +0.140 A 
ATOM      6  C   LIG    1        0.036  -2.094   1.190  0.00  0.00    -0.110 A 
ATOM      7  F   LIG    1        0.056  -4.125  -0.027  0.00  0.00    -0.140 F 
ATOM      8  C   LIG    1        0.023  -0.706   1.201  0.00  0.00    +0.250 A 
ENDROOT
BRANCH   8   9
ATOM      9  N   LIG    1        0.021  -0.015   2.416  0.00  0.00    -0.740 N 
ATOM     10  H   LIG    1        0.012   0.955   2.422  0.00  0.00    +0.400 HD
BRANCH   9  11
ATOM     11  C   LIG    1        0.032  -0.756   3.679  0.00  0.00    +0.230 C 
ATOM     12  C   LIG    1        1.474  -1.109   4.051  0.00  0.00    +0.020 C 
BRANCH  11  13
ATOM     13  C   LIG    1       -0.582   0.108   4.783  0.00  0.00    -0.020 C 
ATOM     14  C   LIG    1        0.234   1.393   4.938  0.00  0.00    +0.020 C 
ATOM     15  C   LIG    1       -0.570  -0.666   6.103  0.00  0.00    +0.030 C 
ENDBRANCH  11  13
ENDBRANCH   9  11
ENDBRANCH   8   9
TORSDOF 3
ENDMDL
MODEL      192
REMARK  Name = ZINC000019956638
REMARK                            x       y       z     vdW  Elec       q    Type
REMARK                         _______ _______ _______ _____ _____    ______ ____
ROOT
ATOM      1  C   LIG    1        0.731  -0.503   1.223  0.00  0.00    -0.160 A 
ATOM      2  C   LIG    1        2.076  -0.808   1.149  0.00  0.00    +0.050 A 
ATOM      3  C   LIG    1        2.745  -1.267   2.269  0.00  0.00    -0.060 A 
ATOM      4  C   LIG    1        2.071  -1.421   3.466  0.00  0.00    +0.040 A 
ATOM      5  C   LIG    1        0.726  -1.118   3.547  0.00  0.00    -0.080 A 
ATOM      6  C   LIG    1        0.052  -0.652   2.426  0.00  0.00    +0.220 A 
ENDROOT
BRANCH   1   8
ATOM      7  C   LIG    1       -0.019   1.526   0.010  0.00  0.00    +0.020 C 
ATOM      8  C   LIG    1        0.002  -0.004   0.002  0.00  0.00    +0.050 C 
ENDBRANCH   1   8
BRANCH   6   9
ATOM      9  N   LIG    1       -1.308  -0.344   2.505  0.00  0.00    -0.740 N 
ATOM     10  H   LIG    1       -1.778  -0.019   1.721  0.00  0.00    +0.400 HD
BRANCH   9  11
ATOM     11  C   LIG    1       -2.025  -0.513   3.771  0.00  0.00    +0.230 C 
ATOM     12  C   LIG    1       -2.496  -1.963   3.901  0.00  0.00    +0.020 C 
BRANCH  11  13
ATOM     13  C   LIG    1       -3.237   0.421   3.799  0.00  0.00    -0.030 C 
ATOM     14  C   LIG    1       -3.914   0.337   5.169  0.00  0.00    +0.030 C 
ATOM     15  C   LIG    1       -4.229   0.002   2.713  0.00  0.00    +0.020 C 
ENDBRANCH  11  13
ENDBRANCH   9  11
ENDBRANCH   6   9
TORSDOF 4
ENDMDL
MODEL      193
REMARK  Name = ZINC000019955998
REMARK                            x       y       z     vdW  Elec       q    Type
REMARK                         _______ _______ _______ _____ _____    ______ ____
ROOT
ATOM      1  C   LIG    1       -0.018   1.503   0.010  0.00  0.00    +0.090 C 
ATOM      2  C   LIG    1        0.002  -0.004   0.002  0.00  0.00    -0.180 A 
ATOM      3  C   LIG    1        0.006  -0.687  -1.200  0.00  0.00    +0.090 A 
ATOM      4  C   LIG    1        0.024  -2.068  -1.211  0.00  0.00    -0.070 A 
ATOM      5  C   LIG    1        0.039  -2.772  -0.014  0.00  0.00    +0.240 A 
ATOM      6  C   LIG    1        0.036  -2.085   1.193  0.00  0.00    -0.100 A 
ATOM      7  C   LIG    1        0.023  -0.702   1.199  0.00  0.00    +0.140 A 
ATOM      8  F   LIG    1        0.020  -0.031   2.372  0.00  0.00    -0.140 F 
ENDROOT
BRANCH   5   9
ATOM      9  N   LIG    1        0.058  -4.169  -0.023  0.00  0.00    -0.740 N 
ATOM     10  H   LIG    1        0.061  -4.648  -0.866  0.00  0.00    +0.400 HD
BRANCH   9  11
ATOM     11  C   LIG    1        0.074  -4.910   1.241  0.00  0.00    +0.230 C 
ATOM     12  C   LIG    1        1.515  -5.040   1.737  0.00  0.00    +0.020 C 
BRANCH  11  13
ATOM     13  C   LIG    1       -0.518  -6.304   1.022  0.00  0.00    -0.030 C 
ATOM     14  C   LIG    1       -1.959  -6.174   0.525  0.00  0.00    +0.030 C 
ATOM     15  C   LIG    1       -0.501  -7.078   2.342  0.00  0.00    +0.030 C 
ENDBRANCH  11  13
ENDBRANCH   9  11
ENDBRANCH   5   9
TORSDOF 3
ENDMDL
MODEL      194
REMARK  Name = ZINC000019964633
REMARK                            x       y       z     vdW  Elec       q    Type
REMARK                         _______ _______ _______ _____ _____    ______ ____
ROOT
ATOM      1  C   LIG    1       -0.018   1.503   0.010  0.00  0.00    +0.080 C 
ATOM      2  C   LIG    1        0.002  -0.004   0.002  0.00  0.00    -0.040 A 
ATOM      3  C   LIG    1        0.006  -0.688  -1.200  0.00  0.00    -0.060 A 
ATOM      4  C   LIG    1        0.025  -2.071  -1.212  0.00  0.00    +0.050 A 
ATOM      5  C   LIG    1        0.040  -2.773  -0.023  0.00  0.00    -0.170 A 
ATOM      6  C   LIG    1        0.036  -2.089   1.186  0.00  0.00    +0.220 A 
ATOM      7  C   LIG    1        0.061  -4.280  -0.037  0.00  0.00    +0.090 C 
ATOM      8  C   LIG    1        0.023  -0.700   1.195  0.00  0.00    -0.080 A 
ENDROOT
BRANCH   6   9
ATOM      9  N   LIG    1        0.052  -2.796   2.391  0.00  0.00    -0.740 N 
ATOM     10  H   LIG    1        0.066  -3.766   2.383  0.00  0.00    +0.400 HD
BRANCH   9  11
ATOM     11  C   LIG    1        0.048  -2.073   3.665  0.00  0.00    +0.230 C 
ATOM     12  C   LIG    1        1.482  -1.692   4.039  0.00  0.00    +0.020 C 
BRANCH  11  13
ATOM     13  C   LIG    1       -0.544  -2.967   4.756  0.00  0.00    -0.030 C 
ATOM     14  C   LIG    1       -0.663  -2.171   6.058  0.00  0.00    +0.030 C 
ATOM     15  C   LIG    1        0.370  -4.174   4.979  0.00  0.00    +0.020 C 
ENDBRANCH  11  13
ENDBRANCH   9  11
ENDBRANCH   6   9
TORSDOF 3
ENDMDL
MODEL      195
REMARK  Name = ZINC000019964300
REMARK                            x       y       z     vdW  Elec       q    Type
REMARK                         _______ _______ _______ _____ _____    ______ ____
ROOT
ATOM      1  C   LIG    1       -0.018   1.503   0.010  0.00  0.00    +0.090 C 
ATOM      2  C   LIG    1        0.002  -0.004   0.002  0.00  0.00    -0.040 A 
ATOM      3  C   LIG    1        0.006  -0.688  -1.200  0.00  0.00    -0.060 A 
ATOM      4  C   LIG    1        0.025  -2.071  -1.212  0.00  0.00    +0.050 A 
ATOM      5  C   LIG    1        0.040  -2.773  -0.023  0.00  0.00    -0.080 A 
ATOM      6  C   LIG    1        0.036  -2.089   1.186  0.00  0.00    +0.220 A 
ATOM      7  C   LIG    1        0.023  -0.700   1.195  0.00  0.00    -0.170 A 
ATOM      8  C   LIG    1        0.019   0.046   2.504  0.00  0.00    +0.070 C 
ENDROOT
BRANCH   6   9
ATOM      9  N   LIG    1        0.052  -2.796   2.391  0.00  0.00    -0.740 N 
ATOM     10  H   LIG    1        0.050  -2.318   3.234  0.00  0.00    +0.400 HD
BRANCH   9  11
ATOM     11  C   LIG    1        0.072  -4.261   2.380  0.00  0.00    +0.230 C 
ATOM     12  C   LIG    1        1.516  -4.750   2.243  0.00  0.00    +0.020 C 
BRANCH  11  13
ATOM     13  C   LIG    1       -0.524  -4.789   3.686  0.00  0.00    -0.030 C 
ATOM     14  C   LIG    1        0.302  -4.277   4.867  0.00  0.00    +0.020 C 
ATOM     15  C   LIG    1       -0.502  -6.319   3.675  0.00  0.00    +0.030 C 
ENDBRANCH  11  13
ENDBRANCH   9  11
ENDBRANCH   6   9
TORSDOF 3
ENDMDL
MODEL      196
REMARK  Name = ZINC000019962204
REMARK                            x       y       z     vdW  Elec       q    Type
REMARK                         _______ _______ _______ _____ _____    ______ ____
ROOT
ATOM      1  C   LIG    1       -1.412  -0.526   0.013  0.00  0.00    -0.030 A 
ATOM      2  C   LIG    1       -2.050  -0.766   1.215  0.00  0.00    -0.060 A 
ATOM      3  C   LIG    1       -3.348  -1.244   1.230  0.00  0.00    +0.050 A 
ATOM      4  C   LIG    1       -4.010  -1.484   0.042  0.00  0.00    -0.080 A 
ATOM      5  C   LIG    1       -3.372  -1.244  -1.168  0.00  0.00    +0.220 A 
ATOM      6  C   LIG    1       -2.070  -0.758  -1.179  0.00  0.00    -0.080 A 
ENDROOT
BRANCH   1   8
ATOM      7  C   LIG    1       -0.019   1.526   0.010  0.00  0.00    +0.020 C 
ATOM      8  C   LIG    1        0.002  -0.004   0.002  0.00  0.00    +0.050 C 
ENDBRANCH   1   8
BRANCH   5   9
ATOM      9  N   LIG    1       -4.039  -1.485  -2.371  0.00  0.00    -0.740 N 
ATOM     10  H   LIG    1       -3.592  -1.317  -3.216  0.00  0.00    +0.400 HD
BRANCH   9  11
ATOM     11  C   LIG    1       -5.413  -1.992  -2.358  0.00  0.00    +0.230 C 
ATOM     12  C   LIG    1       -6.387  -0.820  -2.223  0.00  0.00    +0.020 C 
BRANCH  11  13
ATOM     13  C   LIG    1       -5.694  -2.739  -3.663  0.00  0.00    -0.030 C 
ATOM     14  C   LIG    1       -7.129  -3.269  -3.649  0.00  0.00    +0.030 C 
ATOM     15  C   LIG    1       -4.719  -3.911  -3.799  0.00  0.00    +0.030 C 
ENDBRANCH  11  13
ENDBRANCH   9  11
ENDBRANCH   5   9
TORSDOF 4
ENDMDL
MODEL      197
REMARK  Name = ZINC000019964418
REMARK                            x       y       z     vdW  Elec       q    Type
REMARK                         _______ _______ _______ _____ _____    ______ ____
ROOT
ATOM      1  N   LIG    1        0.059  -4.167  -0.021  0.00  0.00    -0.740 N 
ATOM      2  H   LIG    1        0.062  -4.648  -0.864  0.00  0.00    +0.400 HD
ENDROOT
BRANCH   1   7
ATOM      3  C   LIG    1       -0.018   1.503   0.010  0.00  0.00    +0.070 C 
ATOM      4  C   LIG    1        0.002  -0.004   0.002  0.00  0.00    -0.150 A 
ATOM      5  C   LIG    1        0.006  -0.687  -1.200  0.00  0.00    +0.050 A 
ATOM      6  C   LIG    1        0.024  -2.068  -1.212  0.00  0.00    -0.070 A 
ATOM      7  C   LIG    1        0.040  -2.771  -0.013  0.00  0.00    +0.210 A 
ATOM      8  C   LIG    1        0.036  -2.081   1.193  0.00  0.00    -0.080 A 
ATOM      9  C   LIG    1        0.023  -0.700   1.197  0.00  0.00    +0.050 A 
ENDBRANCH   1   7
BRANCH   1  10
ATOM     10  C   LIG    1        0.075  -4.907   1.244  0.00  0.00    +0.230 C 
ATOM     11  C   LIG    1        1.516  -5.035   1.741  0.00  0.00    +0.010 C 
BRANCH  10  12
ATOM     12  C   LIG    1       -0.516  -6.301   1.027  0.00  0.00    +0.030 C 
BRANCH  12  13
ATOM     13  C   LIG    1       -1.994  -6.176   0.650  0.00  0.00    -0.030 C 
ATOM     14  C   LIG    1       -2.772  -5.585   1.827  0.00  0.00    +0.010 C 
ATOM     15  C   LIG    1       -2.553  -7.559   0.312  0.00  0.00    +0.000 C 
ENDBRANCH  12  13
ENDBRANCH  10  12
ENDBRANCH   1  10
TORSDOF 4
ENDMDL
MODEL      198
REMARK  Name = ZINC000019961268
REMARK                            x       y       z     vdW  Elec       q    Type
REMARK                         _______ _______ _______ _____ _____    ______ ____
ROOT
ATOM      1  C   LIG    1       -0.018   1.503   0.010  0.00  0.00    +0.090 C 
ATOM      2  C   LIG    1        0.002  -0.004   0.002  0.00  0.00    -0.140 A 
ATOM      3  C   LIG    1        0.006  -0.689  -1.197  0.00  0.00    +0.020 A 
ATOM      4  C   LIG    1        0.025  -2.073  -1.206  0.00  0.00    +0.040 A 
ATOM      5  C   LIG    1        0.041  -2.774  -0.012  0.00  0.00    +0.020 A 
ATOM      6  C   LIG    1        0.037  -2.094   1.190  0.00  0.00    -0.040 A 
ATOM      7  F   LIG    1        0.028  -2.741  -2.380  0.00  0.00    -0.150 F 
ATOM      8  C   LIG    1        0.023  -0.706   1.201  0.00  0.00    +0.210 A 
ENDROOT
BRANCH   8   9
ATOM      9  N   LIG    1        0.020  -0.015   2.416  0.00  0.00    -0.740 N 
ATOM     10  H   LIG    1        0.010   0.955   2.423  0.00  0.00    +0.400 HD
BRANCH   9  11
ATOM     11  C   LIG    1        0.033  -0.756   3.680  0.00  0.00    +0.230 C 
ATOM     12  C   LIG    1        1.475  -1.107   4.051  0.00  0.00    +0.020 C 
BRANCH  11  13
ATOM     13  C   LIG    1       -0.582   0.108   4.784  0.00  0.00    -0.030 C 
ATOM     14  C   LIG    1       -0.569  -0.666   6.103  0.00  0.00    +0.030 C 
ATOM     15  C   LIG    1       -2.024   0.459   4.412  0.00  0.00    +0.030 C 
ENDBRANCH  11  13
ENDBRANCH   9  11
ENDBRANCH   8   9
TORSDOF 3
ENDMDL
MODEL      199
REMARK  Name = ZINC000019964299
REMARK                            x       y       z     vdW  Elec       q    Type
REMARK                         _______ _______ _______ _____ _____    ______ ____
ROOT
ATOM      1  C   LIG    1       -0.018   1.503   0.010  0.00  0.00    +0.090 C 
ATOM      2  C   LIG    1        0.002  -0.004   0.002  0.00  0.00    -0.040 A 
ATOM      3  C   LIG    1        0.006  -0.688  -1.200  0.00  0.00    -0.060 A 
ATOM      4  C   LIG    1        0.025  -2.071  -1.212  0.00  0.00    +0.050 A 
ATOM      5  C   LIG    1        0.040  -2.773  -0.023  0.00  0.00    -0.080 A 
ATOM      6  C   LIG    1        0.036  -2.089   1.186  0.00  0.00    +0.220 A 
ATOM      7  C   LIG    1        0.023  -0.700   1.195  0.00  0.00    -0.170 A 
ATOM      8  C   LIG    1        0.019   0.046   2.504  0.00  0.00    +0.080 C 
ENDROOT
BRANCH   6   9
ATOM      9  N   LIG    1        0.052  -2.796   2.391  0.00  0.00    -0.740 N 
ATOM     10  H   LIG    1        0.050  -2.318   3.234  0.00  0.00    +0.400 HD
BRANCH   9  11
ATOM     11  C   LIG    1        0.072  -4.261   2.380  0.00  0.00    +0.230 C 
ATOM     12  C   LIG    1       -1.358  -4.790   2.257  0.00  0.00    +0.020 C 
BRANCH  11  13
ATOM     13  C   LIG    1        0.696  -4.772   3.680  0.00  0.00    -0.030 C 
ATOM     14  C   LIG    1        2.126  -4.243   3.803  0.00  0.00    +0.030 C 
ATOM     15  C   LIG    1        0.717  -6.302   3.669  0.00  0.00    +0.030 C 
ENDBRANCH  11  13
ENDBRANCH   9  11
ENDBRANCH   6   9
TORSDOF 3
ENDMDL
MODEL      200
REMARK  Name = ZINC000019961185
REMARK                            x       y       z     vdW  Elec       q    Type
REMARK                         _______ _______ _______ _____ _____    ______ ____
ROOT
ATOM      1  C   LIG    1        2.532   1.162   1.624  0.00  0.00    +0.210 A 
ATOM      2  C   LIG    1        1.584   2.032   2.146  0.00  0.00    -0.030 A 
ATOM      3  C   LIG    1        1.966   3.282   2.592  0.00  0.00    +0.020 A 
ATOM      4  C   LIG    1        3.294   3.668   2.521  0.00  0.00    +0.040 A 
ATOM      5  C   LIG    1        4.241   2.801   2.001  0.00  0.00    +0.020 A 
ATOM      6  F   LIG    1        3.665   4.891   2.958  0.00  0.00    -0.150 F 
ATOM      7  C   LIG    1        3.865   1.549   1.559  0.00  0.00    -0.140 A 
ATOM      8  C   LIG    1        4.896   0.607   0.994  0.00  0.00    +0.090 C 
ENDROOT
BRANCH   1   9
ATOM      9  N   LIG    1        2.148  -0.104   1.172  0.00  0.00    -0.740 N 
ATOM     10  H   LIG    1        2.812  -0.712   0.811  0.00  0.00    +0.400 HD
BRANCH   9  11
ATOM     11  C   LIG    1        0.742  -0.511   1.242  0.00  0.00    +0.230 C 
BRANCH  11  13
ATOM     12  C   LIG    1       -0.019   1.526   0.010  0.00  0.00    +0.020 C 
ATOM     13  C   LIG    1        0.002  -0.004   0.002  0.00  0.00    -0.010 C 
ENDBRANCH  11  13
BRANCH  11  14
ATOM     14  C   LIG    1        0.655  -2.037   1.299  0.00  0.00    +0.020 C 
ATOM     15  C   LIG    1        1.286  -2.536   2.600  0.00  0.00    +0.030 C 
ENDBRANCH  11  14
ENDBRANCH   9  11
ENDBRANCH   1   9
TORSDOF 4
ENDMDL
MODEL      201
REMARK  Name = ZINC000019962206
REMARK                            x       y       z     vdW  Elec       q    Type
REMARK                         _______ _______ _______ _____ _____    ______ ____
ROOT
ATOM      1  C   LIG    1       -1.412  -0.526   0.013  0.00  0.00    -0.030 A 
ATOM      2  C   LIG    1       -2.050  -0.766   1.215  0.00  0.00    -0.060 A 
ATOM      3  C   LIG    1       -3.348  -1.244   1.230  0.00  0.00    +0.050 A 
ATOM      4  C   LIG    1       -4.010  -1.484   0.042  0.00  0.00    -0.080 A 
ATOM      5  C   LIG    1       -3.372  -1.244  -1.168  0.00  0.00    +0.220 A 
ATOM      6  C   LIG    1       -2.070  -0.758  -1.179  0.00  0.00    -0.080 A 
ENDROOT
BRANCH   1   8
ATOM      7  C   LIG    1       -0.019   1.526   0.010  0.00  0.00    +0.020 C 
ATOM      8  C   LIG    1        0.002  -0.004   0.002  0.00  0.00    +0.050 C 
ENDBRANCH   1   8
BRANCH   5   9
ATOM      9  N   LIG    1       -4.039  -1.485  -2.371  0.00  0.00    -0.740 N 
ATOM     10  H   LIG    1       -3.592  -1.317  -3.216  0.00  0.00    +0.400 HD
BRANCH   9  11
ATOM     11  C   LIG    1       -5.413  -1.992  -2.358  0.00  0.00    +0.230 C 
ATOM     12  C   LIG    1       -5.394  -3.516  -2.233  0.00  0.00    +0.020 C 
BRANCH  11  13
ATOM     13  C   LIG    1       -6.115  -1.595  -3.659  0.00  0.00    -0.030 C 
ATOM     14  C   LIG    1       -7.585  -2.015  -3.593  0.00  0.00    +0.030 C 
ATOM     15  C   LIG    1       -5.437  -2.296  -4.838  0.00  0.00    +0.020 C 
ENDBRANCH  11  13
ENDBRANCH   9  11
ENDBRANCH   5   9
TORSDOF 4
ENDMDL
MODEL      202
REMARK  Name = ZINC000019964419
REMARK                            x       y       z     vdW  Elec       q    Type
REMARK                         _______ _______ _______ _____ _____    ______ ____
ROOT
ATOM      1  N   LIG    1        0.074  -4.065   0.013  0.00  0.00    -0.740 N 
ATOM      2  H   LIG    1        0.051  -4.492  -0.858  0.00  0.00    +0.400 HD
ENDROOT
BRANCH   1   7
ATOM      3  C   LIG    1        0.172   1.591   0.398  0.00  0.00    +0.070 C 
ATOM      4  C   LIG    1        0.146   0.088   0.296  0.00  0.00    -0.150 A 
ATOM      5  C   LIG    1        0.113  -0.518  -0.947  0.00  0.00    +0.050 A 
ATOM      6  C   LIG    1        0.089  -1.896  -1.044  0.00  0.00    -0.070 A 
ATOM      7  C   LIG    1        0.098  -2.672   0.108  0.00  0.00    +0.210 A 
ATOM      8  C   LIG    1        0.131  -2.060   1.354  0.00  0.00    -0.080 A 
ATOM      9  C   LIG    1        0.161  -0.682   1.444  0.00  0.00    +0.050 A 
ENDBRANCH   1   7
BRANCH   1  10
ATOM     10  C   LIG    1        0.084  -4.883   1.228  0.00  0.00    +0.230 C 
ATOM     11  C   LIG    1       -1.346  -5.040   1.749  0.00  0.00    +0.010 C 
BRANCH  10  12
ATOM     12  C   LIG    1        0.666  -6.262   0.911  0.00  0.00    +0.030 C 
BRANCH  12  13
ATOM     13  C   LIG    1        2.135  -6.115   0.511  0.00  0.00    -0.030 C 
ATOM     14  C   LIG    1        2.677  -7.471   0.054  0.00  0.00    +0.000 C 
ATOM     15  C   LIG    1        2.944  -5.622   1.712  0.00  0.00    +0.010 C 
ENDBRANCH  12  13
ENDBRANCH  10  12
ENDBRANCH   1  10
TORSDOF 4
ENDMDL
MODEL      203
REMARK  Name = ZINC000019964578
REMARK                            x       y       z     vdW  Elec       q    Type
REMARK                         _______ _______ _______ _____ _____    ______ ____
ROOT
ATOM      1  C   LIG    1       -0.018   1.503   0.010  0.00  0.00    +0.080 C 
ATOM      2  C   LIG    1        0.002  -0.004   0.002  0.00  0.00    -0.040 A 
ATOM      3  C   LIG    1        0.006  -0.688  -1.200  0.00  0.00    -0.060 A 
ATOM      4  C   LIG    1        0.025  -2.071  -1.212  0.00  0.00    +0.050 A 
ATOM      5  C   LIG    1        0.040  -2.773  -0.023  0.00  0.00    -0.170 A 
ATOM      6  C   LIG    1        0.036  -2.089   1.186  0.00  0.00    +0.220 A 
ATOM      7  C   LIG    1        0.061  -4.280  -0.037  0.00  0.00    +0.090 C 
ATOM      8  C   LIG    1        0.023  -0.700   1.195  0.00  0.00    -0.080 A 
ENDROOT
BRANCH   6   9
ATOM      9  N   LIG    1        0.052  -2.796   2.391  0.00  0.00    -0.740 N 
ATOM     10  H   LIG    1        0.066  -3.766   2.383  0.00  0.00    +0.400 HD
BRANCH   9  11
ATOM     11  C   LIG    1        0.048  -2.073   3.665  0.00  0.00    +0.230 C 
ATOM     12  C   LIG    1       -1.402  -1.785   4.104  0.00  0.00    +0.000 C 
ATOM     13  C   LIG    1       -1.744  -2.945   5.072  0.00  0.00    +0.020 C 
ATOM     14  C   LIG    1       -0.414  -3.155   5.838  0.00  0.00    +0.010 C 
ATOM     15  C   LIG    1        0.677  -2.944   4.767  0.00  0.00    +0.010 C 
ENDBRANCH   9  11
ENDBRANCH   6   9
TORSDOF 2
ENDMDL
MODEL      204
REMARK  Name = ZINC000019964279
REMARK                            x       y       z     vdW  Elec       q    Type
REMARK                         _______ _______ _______ _____ _____    ______ ____
ROOT
ATOM      1  C   LIG    1       -2.685   1.091   1.405  0.00  0.00    +0.220 A 
ATOM      2  C   LIG    1       -2.676   1.983   0.340  0.00  0.00    -0.070 A 
ATOM      3  C   LIG    1       -3.274   3.221   0.474  0.00  0.00    +0.040 A 
ATOM      4  C   LIG    1       -3.881   3.572   1.666  0.00  0.00    -0.060 A 
ATOM      5  C   LIG    1       -3.891   2.687   2.728  0.00  0.00    -0.040 A 
ATOM      6  C   LIG    1       -4.554   3.074   4.025  0.00  0.00    +0.090 C 
ATOM      7  C   LIG    1       -3.300   1.445   2.599  0.00  0.00    -0.170 A 
ATOM      8  C   LIG    1       -3.311   0.481   3.757  0.00  0.00    +0.080 C 
ENDROOT
BRANCH   1   9
ATOM      9  N   LIG    1       -2.082  -0.162   1.273  0.00  0.00    -0.740 N 
ATOM     10  H   LIG    1       -2.092  -0.785   2.016  0.00  0.00    +0.400 HD
BRANCH   9  11
ATOM     11  C   LIG    1       -1.433  -0.534   0.013  0.00  0.00    +0.230 C 
BRANCH  11  13
ATOM     12  C   LIG    1       -0.019   1.526   0.010  0.00  0.00    +0.020 C 
ATOM     13  C   LIG    1        0.002  -0.004   0.002  0.00  0.00    -0.010 C 
ENDBRANCH  11  13
BRANCH  11  14
ATOM     14  C   LIG    1       -1.416  -2.058  -0.121  0.00  0.00    +0.020 C 
ATOM     15  C   LIG    1       -2.850  -2.576  -0.236  0.00  0.00    +0.020 C 
ENDBRANCH  11  14
ENDBRANCH   9  11
ENDBRANCH   1   9
TORSDOF 4
ENDMDL
MODEL      205
REMARK  Name = ZINC000071785531
REMARK                            x       y       z     vdW  Elec       q    Type
REMARK                         _______ _______ _______ _____ _____    ______ ____
ROOT
ATOM      1 CL   LIG    1        0.002  -0.004   0.002  0.00  0.00    -0.100 Cl
ATOM      2  C   LIG    1       -0.022   1.799   0.012  0.00  0.00    +0.030 C 
ATOM      3  C   LIG    1        0.446   2.488   1.256  0.00  0.00    -0.020 C 
ATOM      4  C   LIG    1        0.981   1.946   2.533  0.00  0.00    +0.070 C 
ATOM      5  C   LIG    1        1.910   2.945   3.209  0.00  0.00    +0.070 C 
ATOM      6  C   LIG    1        3.110   3.208   2.330  0.00  0.00    -0.050 C 
ATOM      7  C   LIG    1        3.118   3.937   1.296  0.00  0.00    -0.050 C 
ATOM      8  C   LIG    1        1.962   4.721   0.736  0.00  0.00    +0.050 C 
ATOM      9  C   LIG    1        1.483   3.974  -0.544  0.00  0.00    +0.070 C 
ATOM     10 CL   LIG    1       -1.380   2.562  -0.897  0.00  0.00    -0.090 Cl
ATOM     11  C   LIG    1        1.306   2.511   0.003  0.00  0.00    +0.010 C 
ENDROOT
TORSDOF 0
ENDMDL
MODEL      206
REMARK  Name = ZINC000019964998
REMARK                            x       y       z     vdW  Elec       q    Type
REMARK                         _______ _______ _______ _____ _____    ______ ____
ROOT
ATOM      1  N   LIG    1       -0.055  -0.114  -2.441  0.00  0.00    -0.740 N 
ATOM      2  H   LIG    1       -0.683  -0.740  -2.833  0.00  0.00    +0.400 HD
ENDROOT
BRANCH   1   3
ATOM      3  C   LIG    1        0.113   1.153  -3.004  0.00  0.00    +0.220 A 
ATOM      4  C   LIG    1        1.017   2.049  -2.446  0.00  0.00    -0.070 A 
ATOM      5  C   LIG    1        1.181   3.301  -3.006  0.00  0.00    +0.040 A 
ATOM      6  C   LIG    1        0.446   3.663  -4.120  0.00  0.00    -0.060 A 
ATOM      7  C   LIG    1       -0.455   2.774  -4.678  0.00  0.00    +0.040 A 
ATOM      8  C   LIG    1       -0.620   1.519  -4.127  0.00  0.00    -0.170 A 
ATOM      9  C   LIG    1       -1.601   0.551  -4.734  0.00  0.00    +0.090 C 
ENDBRANCH   1   3
BRANCH   1  10
ATOM     10  C   LIG    1        0.718  -0.497  -1.257  0.00  0.00    +0.230 C 
BRANCH  10  12
ATOM     11  C   LIG    1       -0.019   1.526   0.010  0.00  0.00    +0.020 C 
ATOM     12  C   LIG    1        0.002  -0.004   0.002  0.00  0.00    -0.010 C 
ENDBRANCH  10  12
BRANCH  10  13
ATOM     13  C   LIG    1        0.849  -2.021  -1.205  0.00  0.00    +0.020 C 
ATOM     14  C   LIG    1        1.673  -2.503  -2.400  0.00  0.00    +0.020 C 
ENDBRANCH  10  13
ENDBRANCH   1  10
TORSDOF 4
ENDMDL
MODEL      207
REMARK  Name = ZINC000019964338
REMARK                            x       y       z     vdW  Elec       q    Type
REMARK                         _______ _______ _______ _____ _____    ______ ____
ROOT
ATOM      1  C   LIG    1       -3.023  -3.947   0.010  0.00  0.00    +0.220 A 
ATOM      2  C   LIG    1       -1.957  -4.837   0.001  0.00  0.00    -0.080 A 
ATOM      3  C   LIG    1       -2.194  -6.197  -0.004  0.00  0.00    +0.050 A 
ATOM      4  C   LIG    1       -3.492  -6.674   0.001  0.00  0.00    -0.060 A 
ATOM      5  C   LIG    1       -4.557  -5.791   0.009  0.00  0.00    -0.040 A 
ATOM      6  C   LIG    1       -5.970  -6.316   0.014  0.00  0.00    +0.090 C 
ATOM      7  C   LIG    1       -4.326  -4.430   0.020  0.00  0.00    -0.170 A 
ATOM      8  C   LIG    1       -5.487  -3.468   0.029  0.00  0.00    +0.080 C 
ENDROOT
BRANCH   1   9
ATOM      9  N   LIG    1       -2.787  -2.571   0.015  0.00  0.00    -0.750 N 
ATOM     10  H   LIG    1       -3.533  -1.950   0.025  0.00  0.00    +0.400 HD
BRANCH   9  11
ATOM     11  C   LIG    1       -1.413  -2.063   0.004  0.00  0.00    +0.240 C 
BRANCH  11  12
ATOM     12  C   LIG    1       -1.433  -0.534   0.013  0.00  0.00    +0.010 C 
BRANCH  12  14
ATOM     13  C   LIG    1       -0.019   1.526   0.010  0.00  0.00    +0.010 C 
ATOM     14  C   LIG    1        0.002  -0.004   0.002  0.00  0.00    +0.000 C 
ENDBRANCH  12  14
ENDBRANCH  11  12
ENDBRANCH   9  11
ENDBRANCH   1   9
TORSDOF 4
ENDMDL
MODEL      208
REMARK  Name = ZINC000019961264
REMARK                            x       y       z     vdW  Elec       q    Type
REMARK                         _______ _______ _______ _____ _____    ______ ____
ROOT
ATOM      1  C   LIG    1       -0.018   1.503   0.010  0.00  0.00    +0.090 C 
ATOM      2  C   LIG    1        0.002  -0.004   0.002  0.00  0.00    -0.140 A 
ATOM      3  C   LIG    1        0.006  -0.689  -1.197  0.00  0.00    +0.020 A 
ATOM      4  C   LIG    1        0.025  -2.073  -1.206  0.00  0.00    +0.040 A 
ATOM      5  C   LIG    1        0.041  -2.774  -0.012  0.00  0.00    +0.020 A 
ATOM      6  C   LIG    1        0.037  -2.094   1.190  0.00  0.00    -0.040 A 
ATOM      7  F   LIG    1        0.028  -2.741  -2.380  0.00  0.00    -0.150 F 
ATOM      8  C   LIG    1        0.023  -0.706   1.201  0.00  0.00    +0.210 A 
ENDROOT
BRANCH   8   9
ATOM      9  N   LIG    1        0.020  -0.015   2.416  0.00  0.00    -0.740 N 
ATOM     10  H   LIG    1        0.010   0.955   2.423  0.00  0.00    +0.400 HD
BRANCH   9  11
ATOM     11  C   LIG    1        0.033  -0.756   3.680  0.00  0.00    +0.230 C 
ATOM     12  C   LIG    1       -1.399  -1.137   4.062  0.00  0.00    +0.020 C 
BRANCH  11  13
ATOM     13  C   LIG    1        0.637   0.120   4.779  0.00  0.00    -0.020 C 
ATOM     14  C   LIG    1        0.765  -0.694   6.068  0.00  0.00    +0.030 C 
ATOM     15  C   LIG    1       -0.271   1.327   5.026  0.00  0.00    +0.020 C 
ENDBRANCH  11  13
ENDBRANCH   9  11
ENDBRANCH   8   9
TORSDOF 3
ENDMDL
MODEL      209
REMARK  Name = ZINC000019964439
REMARK                            x       y       z     vdW  Elec       q    Type
REMARK                         _______ _______ _______ _____ _____    ______ ____
ROOT
ATOM      1  N   LIG    1       -0.055  -0.114  -2.441  0.00  0.00    -0.740 N 
ATOM      2  H   LIG    1       -0.683  -0.740  -2.833  0.00  0.00    +0.400 HD
ENDROOT
BRANCH   1   3
ATOM      3  C   LIG    1        0.113   1.153  -3.004  0.00  0.00    +0.210 A 
ATOM      4  C   LIG    1        1.017   2.049  -2.446  0.00  0.00    -0.060 A 
ATOM      5  C   LIG    1        1.181   3.300  -3.006  0.00  0.00    +0.040 A 
ATOM      6  C   LIG    1        0.446   3.663  -4.120  0.00  0.00    -0.150 A 
ATOM      7  C   LIG    1       -0.455   2.774  -4.678  0.00  0.00    +0.050 A 
ATOM      8  C   LIG    1        0.627   5.030  -4.728  0.00  0.00    +0.070 C 
ATOM      9  C   LIG    1       -0.619   1.519  -4.126  0.00  0.00    -0.080 A 
ENDBRANCH   1   3
BRANCH   1  10
ATOM     10  C   LIG    1        0.718  -0.497  -1.257  0.00  0.00    +0.230 C 
BRANCH  10  12
ATOM     11  C   LIG    1       -0.019   1.526   0.010  0.00  0.00    +0.020 C 
ATOM     12  C   LIG    1        0.002  -0.004   0.002  0.00  0.00    -0.010 C 
ENDBRANCH  10  12
BRANCH  10  13
ATOM     13  C   LIG    1        0.849  -2.021  -1.205  0.00  0.00    +0.020 C 
ATOM     14  C   LIG    1        1.673  -2.503  -2.400  0.00  0.00    +0.020 C 
ENDBRANCH  10  13
ENDBRANCH   1  10
TORSDOF 4
ENDMDL
MODEL      210
REMARK  Name = ZINC000020018923
REMARK                            x       y       z     vdW  Elec       q    Type
REMARK                         _______ _______ _______ _____ _____    ______ ____
ROOT
ATOM      1  N   LIG    1        1.639  -2.482  -2.350  0.00  0.00    -0.740 N 
ATOM      2  H   LIG    1        1.679  -1.948  -3.158  0.00  0.00    +0.400 HD
ENDROOT
BRANCH   1   3
ATOM      3  C   LIG    1        2.334  -3.693  -2.277  0.00  0.00    +0.190 A 
ATOM      4  C   LIG    1        2.273  -4.462  -1.123  0.00  0.00    -0.050 A 
ATOM      5  C   LIG    1        2.961  -5.659  -1.054  0.00  0.00    +0.050 A 
ATOM      6  C   LIG    1        3.710  -6.091  -2.132  0.00  0.00    -0.020 A 
ATOM      7  C   LIG    1        3.775  -5.328  -3.284  0.00  0.00    +0.030 A 
ATOM      8  C   LIG    1        3.084  -4.133  -3.363  0.00  0.00    +0.010 A 
ATOM      9  F   LIG    1        3.146  -3.388  -4.488  0.00  0.00    -0.150 F 
ENDBRANCH   1   3
BRANCH   1  10
ATOM     10  C   LIG    1        0.849  -2.021  -1.205  0.00  0.00    +0.230 C 
ATOM     11  C   LIG    1       -0.542  -2.655  -1.256  0.00  0.00    +0.020 C 
BRANCH  10  12
ATOM     12  C   LIG    1        0.718  -0.497  -1.257  0.00  0.00    -0.020 C 
ATOM     13  C   LIG    1       -0.089  -0.097  -2.493  0.00  0.00    +0.020 C 
BRANCH  12  15
ATOM     14  C   LIG    1       -0.019   1.526   0.010  0.00  0.00    +0.020 C 
ATOM     15  C   LIG    1        0.002  -0.004   0.002  0.00  0.00    +0.010 C 
ENDBRANCH  12  15
ENDBRANCH  10  12
ENDBRANCH   1  10
TORSDOF 4
ENDMDL
MODEL      211
REMARK  Name = ZINC000019978799
REMARK                            x       y       z     vdW  Elec       q    Type
REMARK                         _______ _______ _______ _____ _____    ______ ____
ROOT
ATOM      1  N   LIG    1       -2.790  -2.554  -0.231  0.00  0.00    -0.740 N 
ATOM      2  H   LIG    1       -3.523  -2.037   0.137  0.00  0.00    +0.400 HD
ENDROOT
BRANCH   1   3
ATOM      3  C   LIG    1       -3.044  -3.774  -0.865  0.00  0.00    +0.210 A 
ATOM      4  C   LIG    1       -1.994  -4.518  -1.387  0.00  0.00    -0.040 A 
ATOM      5  C   LIG    1       -2.247  -5.723  -2.013  0.00  0.00    +0.030 A 
ATOM      6  C   LIG    1       -3.546  -6.189  -2.122  0.00  0.00    +0.030 A 
ATOM      7  C   LIG    1       -4.595  -5.448  -1.602  0.00  0.00    +0.030 A 
ATOM      8  F   LIG    1       -3.792  -7.367  -2.735  0.00  0.00    -0.150 F 
ATOM      9  C   LIG    1       -4.346  -4.246  -0.970  0.00  0.00    -0.040 A 
ENDBRANCH   1   3
BRANCH   1  10
ATOM     10  C   LIG    1       -1.416  -2.058  -0.121  0.00  0.00    +0.230 C 
ATOM     11  C   LIG    1       -0.749  -2.670   1.112  0.00  0.00    +0.020 C 
BRANCH  10  12
ATOM     12  C   LIG    1       -1.433  -0.534   0.013  0.00  0.00    -0.020 C 
ATOM     13  C   LIG    1       -2.110  -0.145   1.329  0.00  0.00    +0.020 C 
BRANCH  12  15
ATOM     14  C   LIG    1       -0.019   1.526   0.010  0.00  0.00    +0.020 C 
ATOM     15  C   LIG    1        0.002  -0.004   0.002  0.00  0.00    +0.010 C 
ENDBRANCH  12  15
ENDBRANCH  10  12
ENDBRANCH   1  10
TORSDOF 4
ENDMDL
MODEL      212
REMARK  Name = ZINC000019978808
REMARK                            x       y       z     vdW  Elec       q    Type
REMARK                         _______ _______ _______ _____ _____    ______ ____
ROOT
ATOM      1  N   LIG    1       -2.790  -2.565  -0.111  0.00  0.00    -0.740 N 
ATOM      2  H   LIG    1       -3.521  -1.990  -0.388  0.00  0.00    +0.400 HD
ENDROOT
BRANCH   1   3
ATOM      3  C   LIG    1       -3.048  -3.877   0.299  0.00  0.00    +0.210 A 
ATOM      4  C   LIG    1       -2.003  -4.698   0.701  0.00  0.00    -0.040 A 
ATOM      5  C   LIG    1       -2.260  -5.993   1.105  0.00  0.00    +0.030 A 
ATOM      6  C   LIG    1       -3.559  -6.473   1.109  0.00  0.00    +0.030 A 
ATOM      7  C   LIG    1       -4.603  -5.656   0.709  0.00  0.00    +0.030 A 
ATOM      8  F   LIG    1       -3.808  -7.741   1.504  0.00  0.00    -0.150 F 
ATOM      9  C   LIG    1       -4.351  -4.358   0.309  0.00  0.00    -0.040 A 
ENDBRANCH   1   3
BRANCH   1  10
ATOM     10  C   LIG    1       -1.416  -2.058  -0.121  0.00  0.00    +0.230 C 
ATOM     11  C   LIG    1       -0.739  -2.446  -1.437  0.00  0.00    +0.020 C 
BRANCH  10  12
ATOM     12  C   LIG    1       -1.433  -0.534   0.013  0.00  0.00    -0.030 C 
ATOM     13  C   LIG    1       -2.110  -0.145   1.329  0.00  0.00    +0.030 C 
BRANCH  12  15
ATOM     14  C   LIG    1       -0.019   1.526   0.010  0.00  0.00    +0.020 C 
ATOM     15  C   LIG    1        0.002  -0.004   0.002  0.00  0.00    +0.010 C 
ENDBRANCH  12  15
ENDBRANCH  10  12
ENDBRANCH   1  10
TORSDOF 4
ENDMDL
MODEL      213
REMARK  Name = ZINC000001601463
REMARK                            x       y       z     vdW  Elec       q    Type
REMARK                         _______ _______ _______ _____ _____    ______ ____
ROOT
ATOM      1  C   LIG    1        1.250  -4.048  -2.643  0.00  0.00    -0.030 C 
ATOM      2  C   LIG    1        1.956  -4.556  -3.905  0.00  0.00    +0.040 C 
ATOM      3  C   LIG    1        1.740  -6.064  -4.036  0.00  0.00    +0.010 C 
ATOM      4  C   LIG    1        0.251  -6.360  -4.226  0.00  0.00    +0.040 C 
ATOM      5  C   LIG    1       -0.519  -5.920  -2.977  0.00  0.00    +0.020 C 
ATOM      6  C   LIG    1       -0.203  -4.466  -2.699  0.00  0.00    +0.360 C 
ATOM      7  O   LIG    1       -1.087  -3.661  -2.531  0.00  0.00    -0.450 OA
ENDROOT
BRANCH   1   8
ATOM      8  C   LIG    1        1.343  -2.522  -2.581  0.00  0.00    +0.040 C 
BRANCH   8   9
ATOM      9  C   LIG    1        0.739  -2.027  -1.265  0.00  0.00    -0.010 C 
ATOM     10  C   LIG    1        1.584  -2.532  -0.094  0.00  0.00    +0.010 C 
BRANCH   9  11
ATOM     11  C   LIG    1        0.718  -0.497  -1.257  0.00  0.00    +0.010 C 
BRANCH  11  13
ATOM     12  C   LIG    1       -0.019   1.526   0.010  0.00  0.00    +0.000 C 
ATOM     13  C   LIG    1        0.002  -0.004   0.002  0.00  0.00    -0.010 C 
ENDBRANCH  11  13
ENDBRANCH   9  11
ENDBRANCH   8   9
ENDBRANCH   1   8
TORSDOF 4
ENDMDL
MODEL      214
REMARK  Name = ZINC000001601461
REMARK                            x       y       z     vdW  Elec       q    Type
REMARK                         _______ _______ _______ _____ _____    ______ ____
ROOT
ATOM      1  C   LIG    1        1.127  -4.039  -2.689  0.00  0.00    -0.030 C 
ATOM      2  C   LIG    1       -0.357  -4.337  -2.928  0.00  0.00    +0.040 C 
ATOM      3  C   LIG    1       -0.541  -5.835  -3.177  0.00  0.00    +0.010 C 
ATOM      4  C   LIG    1        0.192  -6.242  -4.457  0.00  0.00    +0.040 C 
ATOM      5  C   LIG    1        1.697  -6.015  -4.275  0.00  0.00    +0.020 C 
ATOM      6  C   LIG    1        1.924  -4.579  -3.856  0.00  0.00    +0.360 C 
ATOM      7  O   LIG    1        2.716  -3.881  -4.441  0.00  0.00    -0.450 OA
ENDROOT
BRANCH   1   8
ATOM      8  C   LIG    1        1.337  -2.528  -2.579  0.00  0.00    +0.040 C 
BRANCH   8   9
ATOM      9  C   LIG    1        0.642  -2.007  -1.319  0.00  0.00    -0.020 C 
ATOM     10  C   LIG    1        1.331  -2.585  -0.081  0.00  0.00    +0.010 C 
BRANCH   9  11
ATOM     11  C   LIG    1        0.728  -0.480  -1.284  0.00  0.00    +0.000 C 
BRANCH  11  13
ATOM     12  C   LIG    1        0.013   1.576  -0.056  0.00  0.00    +0.000 C 
ATOM     13  C   LIG    1       -0.073   0.049  -0.091  0.00  0.00    -0.010 C 
ENDBRANCH  11  13
ENDBRANCH   9  11
ENDBRANCH   8   9
ENDBRANCH   1   8
TORSDOF 4
ENDMDL
MODEL      215
REMARK  Name = ZINC000072099239
REMARK                            x       y       z     vdW  Elec       q    Type
REMARK                         _______ _______ _______ _____ _____    ______ ____
ROOT
ATOM      1  C   LIG    1        0.657  -2.026  -1.317  0.00  0.00    -0.030 C 
ATOM      2  C   LIG    1        1.316  -2.612  -0.067  0.00  0.00    +0.010 C 
ENDROOT
BRANCH   1   3
ATOM      3  C   LIG    1        0.759  -0.499  -1.278  0.00  0.00    +0.000 C 
BRANCH   3   5
ATOM      4  C   LIG    1        0.043   1.562  -0.061  0.00  0.00    +0.000 C 
ATOM      5  C   LIG    1       -0.059   0.036  -0.101  0.00  0.00    -0.010 C 
ENDBRANCH   3   5
ENDBRANCH   1   3
BRANCH   1   6
ATOM      6  C   LIG    1        1.370  -2.552  -2.564  0.00  0.00    +0.010 C 
BRANCH   6   7
ATOM      7  C   LIG    1        1.151  -4.062  -2.678  0.00  0.00    -0.030 C 
ATOM      8  C   LIG    1        1.983  -4.612  -3.838  0.00  0.00    +0.010 C 
BRANCH   7   9
ATOM      9  C   LIG    1       -0.331  -4.344  -2.934  0.00  0.00    +0.000 C 
ATOM     10  C   LIG    1       -0.571  -5.855  -2.923  0.00  0.00    +0.000 C 
ENDBRANCH   7   9
ENDBRANCH   6   7
ENDBRANCH   1   6
TORSDOF 5
ENDMDL
MODEL      216
REMARK  Name = ZINC000020085425
REMARK                            x       y       z     vdW  Elec       q    Type
REMARK                         _______ _______ _______ _____ _____    ______ ____
ROOT
ATOM      1  N   LIG    1        1.639  -2.482  -2.350  0.00  0.00    -0.740 N 
ATOM      2  H   LIG    1        1.679  -1.948  -3.158  0.00  0.00    +0.400 HD
ENDROOT
BRANCH   1   3
ATOM      3  C   LIG    1        2.333  -3.692  -2.277  0.00  0.00    +0.220 A 
ATOM      4  C   LIG    1        2.272  -4.461  -1.122  0.00  0.00    -0.080 A 
ATOM      5  C   LIG    1        2.960  -5.657  -1.053  0.00  0.00    +0.050 A 
ATOM      6  C   LIG    1        3.709  -6.088  -2.133  0.00  0.00    -0.060 A 
ATOM      7  C   LIG    1        3.772  -5.325  -3.284  0.00  0.00    +0.050 A 
ATOM      8  C   LIG    1        3.082  -4.131  -3.361  0.00  0.00    -0.080 A 
ENDBRANCH   1   3
BRANCH   1   9
ATOM      9  C   LIG    1        0.849  -2.021  -1.205  0.00  0.00    +0.230 C 
ATOM     10  C   LIG    1       -0.542  -2.655  -1.256  0.00  0.00    +0.020 C 
BRANCH   9  11
ATOM     11  C   LIG    1        0.718  -0.497  -1.257  0.00  0.00    -0.020 C 
ATOM     12  C   LIG    1       -0.089  -0.097  -2.493  0.00  0.00    +0.020 C 
BRANCH  11  14
ATOM     13  C   LIG    1       -0.019   1.526   0.010  0.00  0.00    +0.020 C 
ATOM     14  C   LIG    1        0.002  -0.004   0.002  0.00  0.00    +0.010 C 
ENDBRANCH  11  14
ENDBRANCH   9  11
ENDBRANCH   1   9
TORSDOF 4
ENDMDL
MODEL      217
REMARK  Name = ZINC000020085427
REMARK                            x       y       z     vdW  Elec       q    Type
REMARK                         _______ _______ _______ _____ _____    ______ ____
ROOT
ATOM      1  N   LIG    1        1.535  -2.493  -2.410  0.00  0.00    -0.740 N 
ATOM      2  H   LIG    1        2.131  -1.900  -2.893  0.00  0.00    +0.400 HD
ENDROOT
BRANCH   1   3
ATOM      3  C   LIG    1        1.330  -3.798  -2.864  0.00  0.00    +0.220 A 
ATOM      4  C   LIG    1        0.472  -4.647  -2.177  0.00  0.00    -0.080 A 
ATOM      5  C   LIG    1        0.271  -5.937  -2.629  0.00  0.00    +0.050 A 
ATOM      6  C   LIG    1        0.923  -6.383  -3.764  0.00  0.00    -0.060 A 
ATOM      7  C   LIG    1        1.778  -5.540  -4.450  0.00  0.00    +0.050 A 
ATOM      8  C   LIG    1        1.979  -4.248  -4.007  0.00  0.00    -0.080 A 
ENDBRANCH   1   3
BRANCH   1   9
ATOM      9  C   LIG    1        0.849  -2.021  -1.205  0.00  0.00    +0.230 C 
ATOM     10  C   LIG    1        1.657  -2.422   0.031  0.00  0.00    +0.020 C 
BRANCH   9  11
ATOM     11  C   LIG    1        0.718  -0.497  -1.257  0.00  0.00    -0.030 C 
ATOM     12  C   LIG    1       -0.089  -0.097  -2.493  0.00  0.00    +0.020 C 
BRANCH  11  14
ATOM     13  C   LIG    1       -0.019   1.526   0.010  0.00  0.00    +0.020 C 
ATOM     14  C   LIG    1        0.002  -0.004   0.002  0.00  0.00    +0.010 C 
ENDBRANCH  11  14
ENDBRANCH   9  11
ENDBRANCH   1   9
TORSDOF 4
ENDMDL
MODEL      218
REMARK  Name = ZINC000015446555
REMARK                            x       y       z     vdW  Elec       q    Type
REMARK                         _______ _______ _______ _____ _____    ______ ____
ROOT
ATOM      1  C   LIG    1       -1.215  -0.894   0.929  0.00  0.00    +0.180 A 
ATOM      2  C   LIG    1       -2.424  -0.220   1.039  0.00  0.00    -0.040 A 
ATOM      3  C   LIG    1       -3.605  -0.870   0.739  0.00  0.00    -0.010 A 
ATOM      4  C   LIG    1       -3.584  -2.194   0.327  0.00  0.00    +0.060 A 
ATOM      5  C   LIG    1       -2.376  -2.867   0.216  0.00  0.00    +0.030 A 
ATOM      6  C   LIG    1       -1.193  -2.218   0.512  0.00  0.00    -0.030 A 
ENDROOT
BRANCH   1   8
ATOM      7  C   LIG    1       -0.040   1.161   1.674  0.00  0.00    +0.260 C 
ATOM      8  N   LIG    1       -0.018  -0.236   1.233  0.00  0.00    -0.760 N 
ATOM      9  H   LIG    1        0.828  -0.706   1.153  0.00  0.00    +0.400 HD
ENDBRANCH   1   8
BRANCH   4  10
ATOM     10  O   LIG    1       -4.747  -2.833   0.031  0.00  0.00    -0.260 OA
BRANCH  10  11
ATOM     11  C   LIG    1       -5.906  -2.133   0.144  0.00  0.00    +0.090 A 
ATOM     12  C   LIG    1       -6.400  -1.425  -0.942  0.00  0.00    +0.000 A 
ATOM     13  C   LIG    1       -7.578  -0.714  -0.824  0.00  0.00    +0.020 A 
ATOM     14  C   LIG    1       -8.266  -0.707   0.376  0.00  0.00    +0.010 A 
ATOM     15  C   LIG    1       -7.776  -1.411   1.460  0.00  0.00    +0.020 A 
ATOM     16  C   LIG    1       -6.601  -2.128   1.346  0.00  0.00    +0.000 A 
ENDBRANCH  10  11
ENDBRANCH   4  10
TORSDOF 3
ENDMDL
MODEL      219
REMARK  Name = ZINC000002513111
REMARK                            x       y       z     vdW  Elec       q    Type
REMARK                         _______ _______ _______ _____ _____    ______ ____
ROOT
ATOM      1  C   LIG    1        1.563  -0.788  -0.676  0.00  0.00    +0.250 A 
ATOM      2  C   LIG    1        2.058  -0.080  -1.765  0.00  0.00    -0.110 A 
ATOM      3  C   LIG    1        2.274  -0.724  -2.968  0.00  0.00    +0.090 A 
ATOM      4  C   LIG    1        1.999  -2.072  -3.092  0.00  0.00    -0.070 A 
ATOM      5  C   LIG    1        1.506  -2.785  -2.008  0.00  0.00    +0.170 A 
ATOM      6  C   LIG    1        1.293  -2.144  -0.798  0.00  0.00    -0.140 A 
ENDROOT
BRANCH   1   8
ATOM      7  C   LIG    1        1.630   1.294   0.667  0.00  0.00    +0.260 C 
ATOM      8  N   LIG    1        1.344  -0.137   0.540  0.00  0.00    -0.750 N 
ATOM      9  H   LIG    1        1.002  -0.632   1.300  0.00  0.00    +0.400 HD
ENDBRANCH   1   8
BRANCH   5  10
ATOM     10  O   LIG    1        1.236  -4.111  -2.132  0.00  0.00    -0.260 OA
BRANCH  10  11
ATOM     11  C   LIG    1        0.745  -4.766  -1.047  0.00  0.00    +0.080 A 
ATOM     12  C   LIG    1       -0.625  -4.841  -0.843  0.00  0.00    +0.000 A 
ATOM     13  C   LIG    1       -1.122  -5.507   0.261  0.00  0.00    +0.020 A 
ATOM     14  C   LIG    1       -0.255  -6.099   1.161  0.00  0.00    +0.010 A 
ATOM     15  C   LIG    1        1.111  -6.026   0.959  0.00  0.00    +0.020 A 
ATOM     16  C   LIG    1        1.613  -5.366  -0.146  0.00  0.00    +0.000 A 
ENDBRANCH  10  11
ENDBRANCH   5  10
TORSDOF 3
ENDMDL
MODEL      220
REMARK  Name = ZINC000020136546
REMARK                            x       y       z     vdW  Elec       q    Type
REMARK                         _______ _______ _______ _____ _____    ______ ____
ROOT
ATOM      1  C   LIG    1        2.080  -0.591  -1.215  0.00  0.00    +0.220 A 
ATOM      2  C   LIG    1        2.815  -0.263  -0.084  0.00  0.00    -0.080 A 
ATOM      3  C   LIG    1        4.191  -0.378  -0.099  0.00  0.00    +0.050 A 
ATOM      4  C   LIG    1        4.837  -0.819  -1.239  0.00  0.00    -0.050 A 
ATOM      5  C   LIG    1        4.108  -1.146  -2.368  0.00  0.00    -0.030 A 
ATOM      6  C   LIG    1        2.732  -1.039  -2.358  0.00  0.00    -0.080 A 
ENDROOT
BRANCH   5   7
ATOM      7  C   LIG    1        4.817  -1.626  -3.608  0.00  0.00    +0.020 C 
ATOM      8  C   LIG    1        5.596  -2.903  -3.288  0.00  0.00    +0.040 C 
ATOM      9  C   LIG    1        5.785  -0.545  -4.093  0.00  0.00    +0.040 C 
ENDBRANCH   5   7
BRANCH   1  10
ATOM     10  N   LIG    1        0.688  -0.476  -1.203  0.00  0.00    -0.750 N 
ATOM     11  H   LIG    1        0.175  -0.710  -1.993  0.00  0.00    +0.400 HD
BRANCH  10  13
ATOM     12  C   LIG    1       -0.019   1.526   0.010  0.00  0.00    +0.010 C 
ATOM     13  C   LIG    1        0.002  -0.004   0.002  0.00  0.00    +0.220 C 
ATOM     14  C   LIG    1       -1.433  -0.534   0.013  0.00  0.00    +0.030 C 
ENDBRANCH  10  13
ENDBRANCH   1  10
TORSDOF 3
ENDMDL
MODEL      221
REMARK  Name = ZINC000098175105
REMARK                            x       y       z     vdW  Elec       q    Type
REMARK                         _______ _______ _______ _____ _____    ______ ____
ROOT
ATOM      1  C   LIG    1       -2.432   0.034   0.105  0.00  0.00    -0.030 C 
ATOM      2  C   LIG    1       -3.564  -0.641  -0.068  0.00  0.00    -0.030 C 
ENDROOT
BRANCH   1   5
ATOM      3  C   LIG    1       -0.034   1.505   0.267  0.00  0.00    +0.070 C 
ATOM      4  C   LIG    1       -0.010  -0.002   0.229  0.00  0.00    -0.040 C 
ATOM      5  C   LIG    1       -1.148  -0.683   0.152  0.00  0.00    -0.020 C 
ENDBRANCH   1   5
BRANCH   2   6
ATOM      6  C   LIG    1       -3.548  -2.148  -0.076  0.00  0.00    +0.040 C 
BRANCH   6   7
ATOM      7  C   LIG    1       -4.553  -2.674   0.951  0.00  0.00    +0.010 C 
BRANCH   7   8
ATOM      8  C   LIG    1       -4.537  -4.204   0.942  0.00  0.00    +0.000 C 
BRANCH   8   9
ATOM      9  C   LIG    1       -5.542  -4.731   1.969  0.00  0.00    -0.010 C 
ATOM     10  C   LIG    1       -5.526  -6.260   1.960  0.00  0.00    +0.000 C 
ENDBRANCH   8   9
ENDBRANCH   7   8
ENDBRANCH   6   7
ENDBRANCH   2   6
TORSDOF 5
ENDMDL
MODEL      222
REMARK  Name = ZINC000072099238
REMARK                            x       y       z     vdW  Elec       q    Type
REMARK                         _______ _______ _______ _____ _____    ______ ____
ROOT
ATOM      1  C   LIG    1        0.739  -2.027  -1.265  0.00  0.00    -0.020 C 
ATOM      2  C   LIG    1        1.584  -2.532  -0.094  0.00  0.00    +0.010 C 
ENDROOT
BRANCH   1   3
ATOM      3  C   LIG    1        0.718  -0.497  -1.257  0.00  0.00    +0.000 C 
BRANCH   3   5
ATOM      4  C   LIG    1       -0.019   1.526   0.010  0.00  0.00    +0.000 C 
ATOM      5  C   LIG    1        0.002  -0.004   0.002  0.00  0.00    -0.010 C 
ENDBRANCH   3   5
ENDBRANCH   1   3
BRANCH   1   6
ATOM      6  C   LIG    1        1.343  -2.522  -2.581  0.00  0.00    +0.010 C 
BRANCH   6   7
ATOM      7  C   LIG    1        1.250  -4.048  -2.643  0.00  0.00    -0.030 C 
ATOM      8  C   LIG    1       -0.221  -4.468  -2.690  0.00  0.00    +0.010 C 
BRANCH   7   9
ATOM      9  C   LIG    1        1.964  -4.552  -3.899  0.00  0.00    +0.000 C 
ATOM     10  C   LIG    1        1.980  -6.082  -3.898  0.00  0.00    +0.000 C 
ENDBRANCH   7   9
ENDBRANCH   6   7
ENDBRANCH   1   6
TORSDOF 5
ENDMDL
MODEL      223
REMARK  Name = ZINC000149626220
REMARK                            x       y       z     vdW  Elec       q    Type
REMARK                         _______ _______ _______ _____ _____    ______ ____
ROOT
ATOM      1  C   LIG    1       -0.018   1.503   0.010  0.00  0.00    +0.090 C 
ATOM      2  C   LIG    1        0.002  -0.004   0.002  0.00  0.00    -0.060 A 
ATOM      3  C   LIG    1        0.006  -0.689  -1.196  0.00  0.00    -0.010 A 
ATOM      4  C   LIG    1        0.025  -2.072  -1.205  0.00  0.00    +0.010 A 
ATOM      5  C   LIG    1        0.040  -2.776  -0.015  0.00  0.00    -0.010 A 
ATOM      6  C   LIG    1        0.036  -2.102   1.189  0.00  0.00    -0.060 A 
ATOM      7  C   LIG    1        0.053  -2.870   2.485  0.00  0.00    +0.090 C 
ATOM      8  C   LIG    1        0.023  -0.708   1.204  0.00  0.00    -0.060 A 
ENDROOT
BRANCH   8   9
ATOM      9  C   LIG    1        0.019   0.022   2.495  0.00  0.00    -0.020 A 
ATOM     10  C   LIG    1       -1.068  -0.092   3.360  0.00  0.00    +0.010 A 
ATOM     11  C   LIG    1       -1.069   0.589   4.561  0.00  0.00    +0.030 A 
ATOM     12  C   LIG    1        0.006   1.384   4.910  0.00  0.00    -0.020 A 
ATOM     13  C   LIG    1        1.093   1.504   4.054  0.00  0.00    +0.110 A 
ATOM     14  C   LIG    1        1.105   0.820   2.850  0.00  0.00    +0.000 A 
BRANCH  13  15
ATOM     15  O   LIG    1        2.148   2.287   4.401  0.00  0.00    -0.500 OA
ATOM     16  H   LIG    1        2.838   1.822   4.894  0.00  0.00    +0.390 HD
ENDBRANCH  13  15
ENDBRANCH   8   9
TORSDOF 2
ENDMDL
MODEL      224
REMARK  Name = ZINC000020041614
REMARK                            x       y       z     vdW  Elec       q    Type
REMARK                         _______ _______ _______ _____ _____    ______ ____
ROOT
ATOM      1  C   LIG    1        0.404  -0.672  -1.110  0.00  0.00    +0.200 A 
ATOM      2  C   LIG    1        0.693   0.054  -2.256  0.00  0.00    -0.040 A 
ATOM      3  C   LIG    1        0.909  -0.602  -3.453  0.00  0.00    +0.020 A 
ATOM      4  C   LIG    1        0.836  -1.981  -3.513  0.00  0.00    -0.020 A 
ATOM      5  C   LIG    1        0.548  -2.712  -2.374  0.00  0.00    -0.020 A 
ATOM      6  C   LIG    1        0.337  -2.063  -1.169  0.00  0.00    +0.050 A 
ENDROOT
BRANCH   1   8
ATOM      7  C   LIG    1        0.257   1.452   0.164  0.00  0.00    +0.260 C 
ATOM      8  N   LIG    1        0.186  -0.011   0.104  0.00  0.00    -0.750 N 
ATOM      9  H   LIG    1       -0.013  -0.520   0.905  0.00  0.00    +0.410 HD
ENDBRANCH   1   8
BRANCH   6  10
ATOM     10  O   LIG    1        0.054  -2.780  -0.049  0.00  0.00    -0.270 OA
BRANCH  10  11
ATOM     11  C   LIG    1       -0.003  -4.134  -0.156  0.00  0.00    +0.090 A 
ATOM     12  C   LIG    1        1.139  -4.896   0.042  0.00  0.00    +0.000 A 
ATOM     13  C   LIG    1        1.078  -6.271  -0.068  0.00  0.00    +0.020 A 
ATOM     14  C   LIG    1       -0.121  -6.889  -0.374  0.00  0.00    +0.010 A 
ATOM     15  C   LIG    1       -1.261  -6.132  -0.572  0.00  0.00    +0.020 A 
ATOM     16  C   LIG    1       -1.206  -4.757  -0.458  0.00  0.00    +0.000 A 
ENDBRANCH  10  11
ENDBRANCH   6  10
TORSDOF 3
ENDMDL
MODEL      225
REMARK  Name = ZINC000019953769
REMARK                            x       y       z     vdW  Elec       q    Type
REMARK                         _______ _______ _______ _____ _____    ______ ____
ROOT
ATOM      1  C   LIG    1       -0.206  -3.809   1.285  0.00  0.00    +0.250 A 
ATOM      2  C   LIG    1       -0.170  -4.597   0.142  0.00  0.00    -0.110 A 
ATOM      3  C   LIG    1        0.430  -5.843   0.183  0.00  0.00    +0.140 A 
ATOM      4  C   LIG    1        0.994  -6.303   1.361  0.00  0.00    -0.080 A 
ATOM      5  C   LIG    1        0.959  -5.519   2.500  0.00  0.00    +0.090 A 
ATOM      6  F   LIG    1        0.466  -6.612  -0.928  0.00  0.00    -0.140 F 
ATOM      7  C   LIG    1        0.366  -4.272   2.464  0.00  0.00    -0.170 A 
ATOM      8  C   LIG    1        0.329  -3.419   3.705  0.00  0.00    +0.100 C 
ENDROOT
BRANCH   1   9
ATOM      9  N   LIG    1       -0.810  -2.550   1.248  0.00  0.00    -0.730 N 
ATOM     10  H   LIG    1       -0.832  -1.999   2.046  0.00  0.00    +0.400 HD
BRANCH   9  11
ATOM     11  C   LIG    1       -1.413  -2.063   0.004  0.00  0.00    +0.220 C 
ATOM     12  C   LIG    1       -2.844  -2.592  -0.110  0.00  0.00    +0.020 C 
BRANCH  11  13
ATOM     13  C   LIG    1       -1.433  -0.534   0.013  0.00  0.00    +0.020 C 
BRANCH  13  15
ATOM     14  C   LIG    1       -0.019   1.526   0.010  0.00  0.00    +0.000 C 
ATOM     15  C   LIG    1        0.002  -0.004   0.002  0.00  0.00    +0.000 C 
ENDBRANCH  13  15
ENDBRANCH  11  13
ENDBRANCH   9  11
ENDBRANCH   1   9
TORSDOF 4
ENDMDL
MODEL      226
REMARK  Name = ZINC000019962028
REMARK                            x       y       z     vdW  Elec       q    Type
REMARK                         _______ _______ _______ _____ _____    ______ ____
ROOT
ATOM      1  C   LIG    1       -0.946  -3.807  -0.895  0.00  0.00    +0.280 A 
ATOM      2  C   LIG    1        0.038  -4.592  -0.308  0.00  0.00    -0.110 A 
ATOM      3  C   LIG    1       -0.276  -5.853   0.167  0.00  0.00    +0.180 A 
ATOM      4  C   LIG    1       -1.570  -6.332   0.058  0.00  0.00    -0.110 A 
ATOM      5  C   LIG    1       -2.553  -5.551  -0.527  0.00  0.00    +0.180 A 
ATOM      6  F   LIG    1       -3.815  -6.021  -0.632  0.00  0.00    -0.130 F 
ATOM      7  F   LIG    1        0.681  -6.616   0.738  0.00  0.00    -0.130 F 
ATOM      8  C   LIG    1       -2.245  -4.288  -0.999  0.00  0.00    -0.110 A 
ENDROOT
BRANCH   1   9
ATOM      9  N   LIG    1       -0.631  -2.534  -1.375  0.00  0.00    -0.730 N 
ATOM     10  H   LIG    1       -1.320  -1.985  -1.781  0.00  0.00    +0.400 HD
BRANCH   9  11
ATOM     11  C   LIG    1        0.739  -2.027  -1.265  0.00  0.00    +0.220 C 
ATOM     12  C   LIG    1        1.562  -2.520  -2.457  0.00  0.00    +0.020 C 
BRANCH  11  13
ATOM     13  C   LIG    1        0.718  -0.497  -1.257  0.00  0.00    +0.020 C 
BRANCH  13  15
ATOM     14  C   LIG    1       -0.019   1.526   0.010  0.00  0.00    +0.010 C 
ATOM     15  C   LIG    1        0.002  -0.004   0.002  0.00  0.00    +0.000 C 
ENDBRANCH  13  15
ENDBRANCH  11  13
ENDBRANCH   9  11
ENDBRANCH   1   9
TORSDOF 4
ENDMDL
MODEL      227
REMARK  Name = ZINC000043319715
REMARK                            x       y       z     vdW  Elec       q    Type
REMARK                         _______ _______ _______ _____ _____    ______ ____
ROOT
ATOM      1  C   LIG    1       -0.946  -3.807  -0.895  0.00  0.00    +0.250 A 
ATOM      2  C   LIG    1        0.038  -4.592  -0.308  0.00  0.00    -0.080 A 
ATOM      3  C   LIG    1       -0.275  -5.851   0.166  0.00  0.00    +0.080 A 
ATOM      4  C   LIG    1       -1.566  -6.332   0.057  0.00  0.00    -0.080 A 
ATOM      5  C   LIG    1       -2.551  -5.552  -0.528  0.00  0.00    +0.140 A 
ATOM      6  F   LIG    1       -3.812  -6.025  -0.634  0.00  0.00    -0.140 F 
ATOM      7  C   LIG    1       -2.245  -4.288  -0.999  0.00  0.00    -0.200 A 
ATOM      8  C   LIG    1       -3.315  -3.440  -1.635  0.00  0.00    +0.100 C 
ENDROOT
BRANCH   1   9
ATOM      9  N   LIG    1       -0.631  -2.534  -1.375  0.00  0.00    -0.740 N 
ATOM     10  H   LIG    1       -1.320  -1.985  -1.781  0.00  0.00    +0.400 HD
BRANCH   9  11
ATOM     11  C   LIG    1        0.739  -2.027  -1.265  0.00  0.00    +0.230 C 
ATOM     12  C   LIG    1        1.562  -2.520  -2.457  0.00  0.00    +0.020 C 
BRANCH  11  13
ATOM     13  C   LIG    1        0.718  -0.497  -1.257  0.00  0.00    +0.020 C 
BRANCH  13  15
ATOM     14  C   LIG    1       -0.019   1.526   0.010  0.00  0.00    +0.000 C 
ATOM     15  C   LIG    1        0.002  -0.004   0.002  0.00  0.00    +0.000 C 
ENDBRANCH  13  15
ENDBRANCH  11  13
ENDBRANCH   9  11
ENDBRANCH   1   9
TORSDOF 4
ENDMDL
MODEL      228
REMARK  Name = ZINC000019956233
REMARK                            x       y       z     vdW  Elec       q    Type
REMARK                         _______ _______ _______ _____ _____    ______ ____
ROOT
ATOM      1  C   LIG    1       -0.946  -3.807  -0.895  0.00  0.00    +0.240 A 
ATOM      2  C   LIG    1        0.038  -4.592  -0.308  0.00  0.00    -0.080 A 
ATOM      3  C   LIG    1       -0.275  -5.851   0.166  0.00  0.00    +0.090 A 
ATOM      4  C   LIG    1       -1.566  -6.332   0.057  0.00  0.00    -0.180 A 
ATOM      5  C   LIG    1       -2.551  -5.552  -0.527  0.00  0.00    +0.140 A 
ATOM      6  F   LIG    1       -3.813  -6.024  -0.632  0.00  0.00    -0.140 F 
ATOM      7  C   LIG    1       -1.904  -7.706   0.575  0.00  0.00    +0.090 C 
ATOM      8  C   LIG    1       -2.245  -4.288  -0.999  0.00  0.00    -0.100 A 
ENDROOT
BRANCH   1   9
ATOM      9  N   LIG    1       -0.631  -2.534  -1.375  0.00  0.00    -0.740 N 
ATOM     10  H   LIG    1       -1.320  -1.985  -1.781  0.00  0.00    +0.400 HD
BRANCH   9  11
ATOM     11  C   LIG    1        0.739  -2.027  -1.265  0.00  0.00    +0.230 C 
ATOM     12  C   LIG    1        1.562  -2.520  -2.457  0.00  0.00    +0.020 C 
BRANCH  11  13
ATOM     13  C   LIG    1        0.718  -0.497  -1.257  0.00  0.00    +0.020 C 
BRANCH  13  15
ATOM     14  C   LIG    1       -0.019   1.526   0.010  0.00  0.00    +0.000 C 
ATOM     15  C   LIG    1        0.002  -0.004   0.002  0.00  0.00    +0.000 C 
ENDBRANCH  13  15
ENDBRANCH  11  13
ENDBRANCH   9  11
ENDBRANCH   1   9
TORSDOF 4
ENDMDL
MODEL      229
REMARK  Name = ZINC000019907923
REMARK                            x       y       z     vdW  Elec       q    Type
REMARK                         _______ _______ _______ _____ _____    ______ ____
ROOT
ATOM      1  C   LIG    1        1.312  -3.780  -0.447  0.00  0.00    +0.220 A 
ATOM      2  C   LIG    1        0.325  -4.591   0.095  0.00  0.00    -0.080 A 
ATOM      3  C   LIG    1        0.091  -5.846  -0.440  0.00  0.00    +0.140 A 
ATOM      4  C   LIG    1        0.840  -6.292  -1.516  0.00  0.00    -0.050 A 
ATOM      5  C   LIG    1        1.824  -5.486  -2.058  0.00  0.00    +0.080 A 
ATOM      6  F   LIG    1       -0.870  -6.636   0.087  0.00  0.00    -0.130 F 
ATOM      7  C   LIG    1        2.059  -4.229  -1.531  0.00  0.00    +0.010 A 
ATOM      8  F   LIG    1        3.021  -3.443  -2.061  0.00  0.00    -0.140 F 
ENDROOT
BRANCH   1   9
ATOM      9  N   LIG    1        1.551  -2.512   0.092  0.00  0.00    -0.730 N 
ATOM     10  H   LIG    1        2.238  -1.944  -0.291  0.00  0.00    +0.410 HD
BRANCH   9  11
ATOM     11  C   LIG    1        0.763  -2.041   1.233  0.00  0.00    +0.220 C 
ATOM     12  C   LIG    1        1.392  -2.549   2.532  0.00  0.00    +0.020 C 
BRANCH  11  13
ATOM     13  C   LIG    1        0.742  -0.511   1.242  0.00  0.00    +0.020 C 
BRANCH  13  15
ATOM     14  C   LIG    1       -0.019   1.526   0.010  0.00  0.00    +0.010 C 
ATOM     15  C   LIG    1        0.002  -0.004   0.002  0.00  0.00    -0.010 C 
ENDBRANCH  13  15
ENDBRANCH  11  13
ENDBRANCH   9  11
ENDBRANCH   1   9
TORSDOF 4
ENDMDL
MODEL      230
REMARK  Name = ZINC000020371386
REMARK                            x       y       z     vdW  Elec       q    Type
REMARK                         _______ _______ _______ _____ _____    ______ ____
ROOT
ATOM      1  C   LIG    1       -0.946  -3.809  -0.895  0.00  0.00    +0.190 A 
ATOM      2  C   LIG    1        0.037  -4.593  -0.308  0.00  0.00    -0.040 A 
ATOM      3  C   LIG    1       -0.278  -5.853   0.166  0.00  0.00    +0.050 A 
ATOM      4  C   LIG    1       -1.569  -6.332   0.057  0.00  0.00    -0.120 A 
ATOM      5  C   LIG    1       -2.553  -5.554  -0.526  0.00  0.00    +0.020 A 
ATOM      6  C   LIG    1       -1.907  -7.707   0.575  0.00  0.00    +0.090 C 
ATOM      7  C   LIG    1       -2.247  -4.291  -0.998  0.00  0.00    +0.020 A 
ATOM      8  F   LIG    1       -3.208  -3.531  -1.568  0.00  0.00    -0.140 F 
ENDROOT
BRANCH   1   9
ATOM      9  N   LIG    1       -0.631  -2.534  -1.375  0.00  0.00    -0.740 N 
ATOM     10  H   LIG    1       -1.320  -1.985  -1.781  0.00  0.00    +0.400 HD
BRANCH   9  11
ATOM     11  C   LIG    1        0.739  -2.027  -1.265  0.00  0.00    +0.230 C 
ATOM     12  C   LIG    1        1.562  -2.520  -2.457  0.00  0.00    +0.020 C 
BRANCH  11  13
ATOM     13  C   LIG    1        0.718  -0.497  -1.257  0.00  0.00    +0.020 C 
BRANCH  13  15
ATOM     14  C   LIG    1       -0.019   1.526   0.010  0.00  0.00    +0.000 C 
ATOM     15  C   LIG    1        0.002  -0.004   0.002  0.00  0.00    +0.000 C 
ENDBRANCH  13  15
ENDBRANCH  11  13
ENDBRANCH   9  11
ENDBRANCH   1   9
TORSDOF 4
ENDMDL
MODEL      231
REMARK  Name = ZINC000061117397
REMARK                            x       y       z     vdW  Elec       q    Type
REMARK                         _______ _______ _______ _____ _____    ______ ____
ROOT
ATOM      1  C   LIG    1       -0.205  -3.810   1.285  0.00  0.00    +0.220 A 
ATOM      2  C   LIG    1       -0.169  -4.598   0.142  0.00  0.00    -0.050 A 
ATOM      3  C   LIG    1        0.429  -5.843   0.181  0.00  0.00    +0.030 A 
ATOM      4  C   LIG    1        0.993  -6.304   1.358  0.00  0.00    +0.030 A 
ATOM      5  C   LIG    1        0.959  -5.520   2.499  0.00  0.00    -0.070 A 
ATOM      6  C   LIG    1        1.574  -6.025   3.779  0.00  0.00    +0.100 C 
ATOM      7  F   LIG    1        1.578  -7.522   1.394  0.00  0.00    -0.150 F 
ATOM      8  C   LIG    1        0.366  -4.273   2.463  0.00  0.00    -0.040 A 
ENDROOT
BRANCH   1   9
ATOM      9  N   LIG    1       -0.810  -2.550   1.248  0.00  0.00    -0.740 N 
ATOM     10  H   LIG    1       -0.832  -1.999   2.046  0.00  0.00    +0.400 HD
BRANCH   9  11
ATOM     11  C   LIG    1       -1.413  -2.063   0.004  0.00  0.00    +0.230 C 
ATOM     12  C   LIG    1       -2.844  -2.592  -0.110  0.00  0.00    +0.010 C 
BRANCH  11  13
ATOM     13  C   LIG    1       -1.433  -0.534   0.013  0.00  0.00    +0.020 C 
BRANCH  13  15
ATOM     14  C   LIG    1       -0.019   1.526   0.010  0.00  0.00    +0.000 C 
ATOM     15  C   LIG    1        0.002  -0.004   0.002  0.00  0.00    +0.000 C 
ENDBRANCH  13  15
ENDBRANCH  11  13
ENDBRANCH   9  11
ENDBRANCH   1   9
TORSDOF 4
ENDMDL
MODEL      232
REMARK  Name = ZINC000001607845
REMARK                            x       y       z     vdW  Elec       q    Type
REMARK                         _______ _______ _______ _____ _____    ______ ____
ROOT
ATOM      1  C   LIG    1       -0.018   1.466   0.010  0.00  0.00    +0.020 C 
ATOM      2  C   LIG    1        1.227   1.960   0.001  0.00  0.00    -0.090 C 
ATOM      3  C   LIG    1        2.191   0.797  -0.015  0.00  0.00    +0.150 C 
ATOM      4  C   LIG    1        1.330  -0.442  -0.013  0.00  0.00    -0.100 A 
ATOM      5  C   LIG    1        1.619  -1.786  -0.023  0.00  0.00    +0.020 A 
ATOM      6  C   LIG    1        0.593  -2.716  -0.019  0.00  0.00    +0.020 A 
ATOM      7  C   LIG    1       -0.726  -2.296  -0.004  0.00  0.00    +0.010 A 
ATOM      8  C   LIG    1       -1.028  -0.951   0.006  0.00  0.00    +0.020 A 
ATOM      9  C   LIG    1        0.002  -0.004   0.002  0.00  0.00    -0.080 A 
ENDROOT
BRANCH   2  10
ATOM     10  C   LIG    1        1.592   3.388   0.005  0.00  0.00    -0.040 A 
ATOM     11  C   LIG    1        2.245   3.949  -1.095  0.00  0.00    +0.020 A 
ATOM     12  C   LIG    1        2.584   5.286  -1.084  0.00  0.00    +0.010 A 
ATOM     13  C   LIG    1        2.279   6.071   0.013  0.00  0.00    +0.000 A 
ATOM     14  C   LIG    1        1.632   5.523   1.107  0.00  0.00    +0.010 A 
ATOM     15  C   LIG    1        1.281   4.189   1.107  0.00  0.00    +0.020 A 
ENDBRANCH   2  10
TORSDOF 1
ENDMDL
MODEL      233
REMARK  Name = ZINC000019918410
REMARK                            x       y       z     vdW  Elec       q    Type
REMARK                         _______ _______ _______ _____ _____    ______ ____
ROOT
ATOM      1  C   LIG    1        1.312  -3.780  -0.447  0.00  0.00    +0.240 A 
ATOM      2  C   LIG    1        0.324  -4.591   0.096  0.00  0.00    -0.040 A 
ATOM      3  C   LIG    1        0.089  -5.844  -0.436  0.00  0.00    +0.070 A 
ATOM      4  C   LIG    1        0.837  -6.293  -1.511  0.00  0.00    +0.000 A 
ATOM      5  C   LIG    1        1.825  -5.485  -2.056  0.00  0.00    +0.120 A 
ATOM      6  F   LIG    1        2.554  -5.924  -3.105  0.00  0.00    -0.130 F 
ATOM      7  F   LIG    1        0.605  -7.518  -2.030  0.00  0.00    -0.140 F 
ATOM      8  C   LIG    1        2.058  -4.228  -1.529  0.00  0.00    -0.070 A 
ENDROOT
BRANCH   1   9
ATOM      9  N   LIG    1        1.551  -2.512   0.092  0.00  0.00    -0.730 N 
ATOM     10  H   LIG    1        2.238  -1.944  -0.291  0.00  0.00    +0.400 HD
BRANCH   9  11
ATOM     11  C   LIG    1        0.763  -2.041   1.233  0.00  0.00    +0.220 C 
ATOM     12  C   LIG    1        1.392  -2.549   2.532  0.00  0.00    +0.020 C 
BRANCH  11  13
ATOM     13  C   LIG    1        0.742  -0.511   1.242  0.00  0.00    +0.020 C 
BRANCH  13  15
ATOM     14  C   LIG    1       -0.019   1.526   0.010  0.00  0.00    +0.010 C 
ATOM     15  C   LIG    1        0.002  -0.004   0.002  0.00  0.00    +0.000 C 
ENDBRANCH  13  15
ENDBRANCH  11  13
ENDBRANCH   9  11
ENDBRANCH   1   9
TORSDOF 4
ENDMDL
MODEL      234
REMARK  Name = ZINC000019964347
REMARK                            x       y       z     vdW  Elec       q    Type
REMARK                         _______ _______ _______ _____ _____    ______ ____
ROOT
ATOM      1  C   LIG    1        1.312  -3.779  -0.446  0.00  0.00    +0.220 A 
ATOM      2  C   LIG    1        0.324  -4.591   0.096  0.00  0.00    -0.080 A 
ATOM      3  C   LIG    1        0.091  -5.843  -0.438  0.00  0.00    +0.050 A 
ATOM      4  C   LIG    1        0.839  -6.288  -1.512  0.00  0.00    -0.060 A 
ATOM      5  C   LIG    1        1.824  -5.483  -2.055  0.00  0.00    -0.040 A 
ATOM      6  C   LIG    1        2.636  -5.972  -3.225  0.00  0.00    +0.090 C 
ATOM      7  C   LIG    1        2.058  -4.228  -1.529  0.00  0.00    -0.170 A 
ATOM      8  C   LIG    1        3.132  -3.350  -2.120  0.00  0.00    +0.080 C 
ENDROOT
BRANCH   1   9
ATOM      9  N   LIG    1        1.551  -2.512   0.092  0.00  0.00    -0.740 N 
ATOM     10  H   LIG    1        2.238  -1.944  -0.291  0.00  0.00    +0.400 HD
BRANCH   9  11
ATOM     11  C   LIG    1        0.763  -2.041   1.233  0.00  0.00    +0.230 C 
ATOM     12  C   LIG    1        1.392  -2.549   2.532  0.00  0.00    +0.010 C 
BRANCH  11  13
ATOM     13  C   LIG    1        0.742  -0.511   1.242  0.00  0.00    +0.020 C 
BRANCH  13  15
ATOM     14  C   LIG    1       -0.019   1.526   0.010  0.00  0.00    +0.000 C 
ATOM     15  C   LIG    1        0.002  -0.004   0.002  0.00  0.00    +0.000 C 
ENDBRANCH  13  15
ENDBRANCH  11  13
ENDBRANCH   9  11
ENDBRANCH   1   9
TORSDOF 4
ENDMDL
MODEL      235
REMARK  Name = ZINC000019920264
REMARK                            x       y       z     vdW  Elec       q    Type
REMARK                         _______ _______ _______ _____ _____    ______ ____
ROOT
ATOM      1  C   LIG    1       -0.946  -3.807  -0.895  0.00  0.00    +0.220 A 
ATOM      2  C   LIG    1        0.038  -4.592  -0.308  0.00  0.00    -0.080 A 
ATOM      3  C   LIG    1       -0.277  -5.851   0.166  0.00  0.00    +0.050 A 
ATOM      4  C   LIG    1       -1.569  -6.329   0.056  0.00  0.00    -0.150 A 
ATOM      5  C   LIG    1       -2.552  -5.550  -0.527  0.00  0.00    -0.040 A 
ATOM      6  C   LIG    1       -3.959  -6.075  -0.643  0.00  0.00    +0.080 C 
ATOM      7  C   LIG    1       -1.909  -7.703   0.575  0.00  0.00    +0.080 C 
ATOM      8  C   LIG    1       -2.245  -4.289  -0.999  0.00  0.00    -0.080 A 
ENDROOT
BRANCH   1   9
ATOM      9  N   LIG    1       -0.631  -2.534  -1.375  0.00  0.00    -0.740 N 
ATOM     10  H   LIG    1       -1.320  -1.985  -1.781  0.00  0.00    +0.400 HD
BRANCH   9  11
ATOM     11  C   LIG    1        0.739  -2.027  -1.265  0.00  0.00    +0.230 C 
ATOM     12  C   LIG    1        1.562  -2.520  -2.457  0.00  0.00    +0.010 C 
BRANCH  11  13
ATOM     13  C   LIG    1        0.718  -0.497  -1.257  0.00  0.00    +0.020 C 
BRANCH  13  15
ATOM     14  C   LIG    1       -0.019   1.526   0.010  0.00  0.00    +0.000 C 
ATOM     15  C   LIG    1        0.002  -0.004   0.002  0.00  0.00    +0.000 C 
ENDBRANCH  13  15
ENDBRANCH  11  13
ENDBRANCH   9  11
ENDBRANCH   1   9
TORSDOF 4
ENDMDL
MODEL      236
REMARK  Name = ZINC000019965115
REMARK                            x       y       z     vdW  Elec       q    Type
REMARK                         _______ _______ _______ _____ _____    ______ ____
ROOT
ATOM      1  N   LIG    1       -0.631  -2.534  -1.375  0.00  0.00    -0.740 N 
ATOM      2  H   LIG    1       -1.320  -1.985  -1.781  0.00  0.00    +0.400 HD
ENDROOT
BRANCH   1   3
ATOM      3  C   LIG    1       -0.946  -3.807  -0.895  0.00  0.00    +0.220 A 
ATOM      4  C   LIG    1        0.038  -4.592  -0.308  0.00  0.00    -0.080 A 
ATOM      5  C   LIG    1       -0.277  -5.851   0.166  0.00  0.00    +0.040 A 
ATOM      6  C   LIG    1       -1.569  -6.329   0.056  0.00  0.00    -0.060 A 
ATOM      7  C   LIG    1       -2.551  -5.550  -0.528  0.00  0.00    +0.050 A 
ATOM      8  C   LIG    1       -2.245  -4.289  -0.999  0.00  0.00    -0.170 A 
ATOM      9  C   LIG    1       -3.316  -3.441  -1.635  0.00  0.00    +0.080 C 
ENDBRANCH   1   3
BRANCH   1  10
ATOM     10  C   LIG    1        0.739  -2.027  -1.265  0.00  0.00    +0.230 C 
ATOM     11  C   LIG    1        1.562  -2.520  -2.457  0.00  0.00    +0.010 C 
BRANCH  10  12
ATOM     12  C   LIG    1        0.718  -0.497  -1.257  0.00  0.00    +0.020 C 
BRANCH  12  14
ATOM     13  C   LIG    1       -0.019   1.526   0.010  0.00  0.00    +0.000 C 
ATOM     14  C   LIG    1        0.002  -0.004   0.002  0.00  0.00    +0.000 C 
ENDBRANCH  12  14
ENDBRANCH  10  12
ENDBRANCH   1  10
TORSDOF 4
ENDMDL
MODEL      237
REMARK  Name = ZINC000019961488
REMARK                            x       y       z     vdW  Elec       q    Type
REMARK                         _______ _______ _______ _____ _____    ______ ____
ROOT
ATOM      1  C   LIG    1       -0.205  -3.810   1.285  0.00  0.00    +0.210 A 
ATOM      2  C   LIG    1       -0.169  -4.598   0.142  0.00  0.00    -0.040 A 
ATOM      3  C   LIG    1        0.429  -5.843   0.181  0.00  0.00    +0.020 A 
ATOM      4  C   LIG    1        0.993  -6.304   1.358  0.00  0.00    +0.040 A 
ATOM      5  C   LIG    1        0.959  -5.520   2.499  0.00  0.00    +0.020 A 
ATOM      6  F   LIG    1        1.578  -7.522   1.394  0.00  0.00    -0.150 F 
ATOM      7  C   LIG    1        0.366  -4.273   2.463  0.00  0.00    -0.140 A 
ATOM      8  C   LIG    1        0.329  -3.420   3.705  0.00  0.00    +0.090 C 
ENDROOT
BRANCH   1   9
ATOM      9  N   LIG    1       -0.810  -2.550   1.248  0.00  0.00    -0.740 N 
ATOM     10  H   LIG    1       -0.832  -1.999   2.046  0.00  0.00    +0.400 HD
BRANCH   9  11
ATOM     11  C   LIG    1       -1.413  -2.063   0.004  0.00  0.00    +0.230 C 
ATOM     12  C   LIG    1       -2.844  -2.592  -0.110  0.00  0.00    +0.010 C 
BRANCH  11  13
ATOM     13  C   LIG    1       -1.433  -0.534   0.013  0.00  0.00    +0.020 C 
BRANCH  13  15
ATOM     14  C   LIG    1       -0.019   1.526   0.010  0.00  0.00    +0.000 C 
ATOM     15  C   LIG    1        0.002  -0.004   0.002  0.00  0.00    +0.000 C 
ENDBRANCH  13  15
ENDBRANCH  11  13
ENDBRANCH   9  11
ENDBRANCH   1   9
TORSDOF 4
ENDMDL
MODEL      238
REMARK  Name = ZINC000064370138
REMARK                            x       y       z     vdW  Elec       q    Type
REMARK                         _______ _______ _______ _____ _____    ______ ____
ROOT
ATOM      1  C   LIG    1        0.007   1.381   2.508  0.00  0.00    +0.040 C 
ENDROOT
BRANCH   1   2
ATOM      2  C   LIG    1       -0.733   1.888   1.268  0.00  0.00    +0.050 C 
BRANCH   2   4
ATOM      3  F   LIG    1        0.002  -0.004   0.002  0.00  0.00    -0.180 F 
ATOM      4  C   LIG    1       -0.017   1.395   0.010  0.00  0.00    +0.450 C 
ATOM      5  F   LIG    1       -0.694   1.858  -1.124  0.00  0.00    -0.180 F 
ATOM      6  F   LIG    1        1.296   1.879  -0.000  0.00  0.00    -0.180 F 
ENDBRANCH   2   4
ENDBRANCH   1   2
BRANCH   1   7
ATOM      7  C   LIG    1       -0.709   1.875   3.767  0.00  0.00    +0.040 C 
BRANCH   7   8
ATOM      8  C   LIG    1        0.031   1.368   5.006  0.00  0.00    +0.050 C 
BRANCH   8   9
ATOM      9  C   LIG    1       -0.685   1.861   6.265  0.00  0.00    +0.450 C 
ATOM     10  F   LIG    1       -0.704   3.260   6.273  0.00  0.00    -0.180 F 
ATOM     11  F   LIG    1       -0.009   1.398   7.399  0.00  0.00    -0.180 F 
ATOM     12  F   LIG    1       -1.998   1.377   6.275  0.00  0.00    -0.180 F 
ENDBRANCH   8   9
ENDBRANCH   7   8
ENDBRANCH   1   7
TORSDOF 5
ENDMDL
MODEL      239
REMARK  Name = ZINC000020471600
REMARK                            x       y       z     vdW  Elec       q    Type
REMARK                         _______ _______ _______ _____ _____    ______ ____
ROOT
ATOM      1  C   LIG    1       -0.946  -3.809  -0.895  0.00  0.00    +0.200 A 
ATOM      2  C   LIG    1        0.037  -4.593  -0.308  0.00  0.00    -0.050 A 
ATOM      3  C   LIG    1       -0.278  -5.853   0.166  0.00  0.00    -0.050 A 
ATOM      4  C   LIG    1       -1.570  -6.332   0.058  0.00  0.00    -0.020 A 
ATOM      5  C   LIG    1       -2.553  -5.554  -0.526  0.00  0.00    +0.030 A 
ATOM      6  C   LIG    1        0.790  -6.705   0.803  0.00  0.00    +0.090 C 
ATOM      7  C   LIG    1       -2.247  -4.291  -0.998  0.00  0.00    +0.010 A 
ATOM      8  F   LIG    1       -3.207  -3.531  -1.569  0.00  0.00    -0.150 F 
ENDROOT
BRANCH   1   9
ATOM      9  N   LIG    1       -0.631  -2.534  -1.375  0.00  0.00    -0.740 N 
ATOM     10  H   LIG    1       -1.320  -1.985  -1.781  0.00  0.00    +0.400 HD
BRANCH   9  11
ATOM     11  C   LIG    1        0.739  -2.027  -1.265  0.00  0.00    +0.230 C 
ATOM     12  C   LIG    1        1.562  -2.520  -2.457  0.00  0.00    +0.020 C 
BRANCH  11  13
ATOM     13  C   LIG    1        0.718  -0.497  -1.257  0.00  0.00    +0.020 C 
BRANCH  13  15
ATOM     14  C   LIG    1       -0.019   1.526   0.010  0.00  0.00    +0.000 C 
ATOM     15  C   LIG    1        0.002  -0.004   0.002  0.00  0.00    +0.000 C 
ENDBRANCH  13  15
ENDBRANCH  11  13
ENDBRANCH   9  11
ENDBRANCH   1   9
TORSDOF 4
ENDMDL
MODEL      240
REMARK  Name = ZINC000019877324
REMARK                            x       y       z     vdW  Elec       q    Type
REMARK                         _______ _______ _______ _____ _____    ______ ____
ROOT
ATOM      1  N   LIG    1       -0.810  -2.550   1.248  0.00  0.00    -0.740 N 
ATOM      2  H   LIG    1       -0.832  -1.999   2.046  0.00  0.00    +0.400 HD
ENDROOT
BRANCH   1   3
ATOM      3  C   LIG    1       -0.206  -3.809   1.285  0.00  0.00    +0.220 A 
ATOM      4  C   LIG    1       -0.169  -4.598   0.142  0.00  0.00    -0.090 A 
ATOM      5  C   LIG    1        0.430  -5.841   0.182  0.00  0.00    +0.050 A 
ATOM      6  C   LIG    1        0.993  -6.302   1.358  0.00  0.00    -0.060 A 
ATOM      7  C   LIG    1        0.958  -5.519   2.498  0.00  0.00    -0.040 A 
ATOM      8  C   LIG    1        1.573  -6.025   3.777  0.00  0.00    +0.080 C 
ATOM      9  C   LIG    1        0.366  -4.272   2.463  0.00  0.00    -0.080 A 
ENDBRANCH   1   3
BRANCH   1  10
ATOM     10  C   LIG    1       -1.413  -2.063   0.004  0.00  0.00    +0.230 C 
ATOM     11  C   LIG    1       -2.844  -2.592  -0.110  0.00  0.00    +0.010 C 
BRANCH  10  12
ATOM     12  C   LIG    1       -1.433  -0.534   0.013  0.00  0.00    +0.020 C 
BRANCH  12  14
ATOM     13  C   LIG    1       -0.019   1.526   0.010  0.00  0.00    +0.000 C 
ATOM     14  C   LIG    1        0.002  -0.004   0.002  0.00  0.00    +0.000 C 
ENDBRANCH  12  14
ENDBRANCH  10  12
ENDBRANCH   1  10
TORSDOF 4
ENDMDL
MODEL      241
REMARK  Name = ZINC000077011900
REMARK                            x       y       z     vdW  Elec       q    Type
REMARK                         _______ _______ _______ _____ _____    ______ ____
ROOT
ATOM      1  C   LIG    1       -0.722   1.881   1.250  0.00  0.00    -0.180 A 
ATOM      2  C   LIG    1       -2.100   2.086   1.220  0.00  0.00    +0.050 A 
ATOM      3  C   LIG    1       -2.768   2.524   2.322  0.00  0.00    +0.040 A 
ATOM      4  C   LIG    1       -2.060   2.775   3.509  0.00  0.00    -0.030 A 
ATOM      5  C   LIG    1       -2.715   3.227   4.668  0.00  0.00    +0.020 A 
ATOM      6  C   LIG    1       -1.996   3.459   5.800  0.00  0.00    +0.030 A 
ATOM      7  C   LIG    1       -0.618   3.254   5.830  0.00  0.00    +0.010 A 
ATOM      8  C   LIG    1        0.050   2.817   4.728  0.00  0.00    +0.030 A 
ATOM      9  C   LIG    1       -0.658   2.566   3.540  0.00  0.00    -0.060 A 
ATOM     10  C   LIG    1       -0.005   2.108   2.384  0.00  0.00    +0.100 A 
ENDROOT
BRANCH   1  12
ATOM     11  F   LIG    1        0.002  -0.004   0.002  0.00  0.00    -0.180 F 
ATOM     12  C   LIG    1       -0.017   1.395   0.010  0.00  0.00    +0.510 C 
ATOM     13  F   LIG    1       -0.694   1.858  -1.124  0.00  0.00    -0.180 F 
ATOM     14  F   LIG    1        1.296   1.879  -0.000  0.00  0.00    -0.180 F 
ENDBRANCH   1  12
TORSDOF 1
ENDMDL
MODEL      242
REMARK  Name = ZINC000020371835
REMARK                            x       y       z     vdW  Elec       q    Type
REMARK                         _______ _______ _______ _____ _____    ______ ____
ROOT
ATOM      1  C   LIG    1       -0.018   1.503   0.010  0.00  0.00    +0.090 C 
ATOM      2  C   LIG    1        0.002  -0.004   0.002  0.00  0.00    -0.120 A 
ATOM      3  C   LIG    1        0.006  -0.687  -1.200  0.00  0.00    +0.050 A 
ATOM      4  C   LIG    1        0.024  -2.069  -1.212  0.00  0.00    -0.040 A 
ATOM      5  C   LIG    1        0.039  -2.772  -0.016  0.00  0.00    +0.190 A 
ATOM      6  C   LIG    1        0.036  -2.083   1.193  0.00  0.00    +0.020 A 
ATOM      7  F   LIG    1        0.051  -2.763   2.360  0.00  0.00    -0.140 F 
ATOM      8  C   LIG    1        0.023  -0.700   1.197  0.00  0.00    +0.020 A 
ENDROOT
BRANCH   5   9
ATOM      9  N   LIG    1        0.058  -4.170  -0.025  0.00  0.00    -0.740 N 
ATOM     10  H   LIG    1        0.069  -4.661   0.812  0.00  0.00    +0.400 HD
BRANCH   9  11
ATOM     11  C   LIG    1        0.062  -4.894  -1.298  0.00  0.00    +0.230 C 
ATOM     12  C   LIG    1       -1.375  -5.057  -1.797  0.00  0.00    +0.020 C 
BRANCH  11  13
ATOM     13  C   LIG    1        0.691  -6.275  -1.099  0.00  0.00    -0.020 C 
ATOM     14  C   LIG    1        0.809  -6.982  -2.450  0.00  0.00    +0.030 C 
ATOM     15  C   LIG    1       -0.189  -7.106  -0.163  0.00  0.00    +0.020 C 
ENDBRANCH  11  13
ENDBRANCH   9  11
ENDBRANCH   5   9
TORSDOF 3
ENDMDL
MODEL      243
REMARK  Name = ZINC000002540448
REMARK                            x       y       z     vdW  Elec       q    Type
REMARK                         _______ _______ _______ _____ _____    ______ ____
ROOT
ATOM      1  C   LIG    1       -0.722   1.881   1.250  0.00  0.00    -0.180 A 
ATOM      2  C   LIG    1       -0.874   3.258   1.482  0.00  0.00    -0.020 A 
ATOM      3  C   LIG    1       -0.379   4.210   0.574  0.00  0.00    +0.010 A 
ATOM      4  C   LIG    1       -0.545   5.536   0.832  0.00  0.00    +0.030 A 
ATOM      5  C   LIG    1       -1.200   5.967   1.984  0.00  0.00    +0.020 A 
ATOM      6  C   LIG    1       -1.692   5.074   2.886  0.00  0.00    +0.030 A 
ATOM      7  C   LIG    1       -1.541   3.696   2.654  0.00  0.00    -0.060 A 
ATOM      8  C   LIG    1       -2.036   2.744   3.561  0.00  0.00    +0.070 A 
ATOM      9  C   LIG    1       -1.871   1.418   3.303  0.00  0.00    +0.010 A 
ATOM     10  C   LIG    1       -1.220   0.988   2.148  0.00  0.00    +0.090 A 
ENDROOT
BRANCH   1  12
ATOM     11  F   LIG    1        0.002  -0.004   0.002  0.00  0.00    -0.180 F 
ATOM     12  C   LIG    1       -0.017   1.395   0.010  0.00  0.00    +0.510 C 
ATOM     13  F   LIG    1       -0.694   1.858  -1.124  0.00  0.00    -0.170 F 
ATOM     14  F   LIG    1        1.296   1.879  -0.000  0.00  0.00    -0.170 F 
ENDBRANCH   1  12
TORSDOF 1
ENDMDL
MODEL      244
REMARK  Name = ZINC000001677082
REMARK                            x       y       z     vdW  Elec       q    Type
REMARK                         _______ _______ _______ _____ _____    ______ ____
ROOT
ATOM      1  C   LIG    1       -0.017   1.379   0.010  0.00  0.00    +0.000 A 
ATOM      2  C   LIG    1        1.168   2.093   0.002  0.00  0.00    +0.000 A 
ATOM      3  C   LIG    1        2.377   1.429  -0.013  0.00  0.00    +0.010 A 
ATOM      4  C   LIG    1        2.403   0.034  -0.021  0.00  0.00    -0.050 A 
ATOM      5  C   LIG    1        1.204  -0.681  -0.013  0.00  0.00    +0.010 A 
ATOM      6  C   LIG    1        0.002  -0.004   0.002  0.00  0.00    +0.000 A 
ENDROOT
BRANCH   4   7
ATOM      7  C   LIG    1        3.695  -0.685  -0.036  0.00  0.00    -0.090 C 
ATOM      8  C   LIG    1        4.479  -0.567   1.008  0.00  0.00    -0.040 C 
ATOM      9  C   LIG    1        5.820  -1.231   1.125  0.00  0.00    +0.060 C 
ATOM     10  C   LIG    1        5.941  -2.359   0.098  0.00  0.00    +0.010 C 
ATOM     11  C   LIG    1        5.530  -1.813  -1.275  0.00  0.00    +0.020 C 
ATOM     12  C   LIG    1        4.029  -1.511  -1.244  0.00  0.00    +0.060 C 
ENDBRANCH   4   7
TORSDOF 1
ENDMDL
MODEL      245
REMARK  Name = ZINC000068568428
REMARK                            x       y       z     vdW  Elec       q    Type
REMARK                         _______ _______ _______ _____ _____    ______ ____
ROOT
ATOM      1  C   LIG    1       -0.016   1.353   0.009  0.00  0.00    +0.000 A 
ATOM      2  C   LIG    1        1.167   2.088   0.002  0.00  0.00    +0.020 A 
ATOM      3  C   LIG    1        2.368   1.449   0.048  0.00  0.00    +0.010 A 
ATOM      4  C   LIG    1        2.425   0.051   0.125  0.00  0.00    -0.030 A 
ATOM      5  C   LIG    1        1.228  -0.712  -0.035  0.00  0.00    -0.040 A 
ATOM      6  C   LIG    1        1.170  -2.081  -0.290  0.00  0.00    +0.000 A 
ATOM      7  C   LIG    1        2.109  -3.030  -0.362  0.00  0.00    +0.020 A 
ATOM      8  C   LIG    1        3.359  -2.917   0.169  0.00  0.00    -0.060 A 
ATOM      9  C   LIG    1        4.552  -3.477  -0.146  0.00  0.00    +0.010 A 
ATOM     10  C   LIG    1        5.716  -2.731  -0.142  0.00  0.00    +0.000 A 
ATOM     11  C   LIG    1        5.840  -1.384  -0.118  0.00  0.00    +0.000 A 
ATOM     12  C   LIG    1        4.882  -0.391  -0.050  0.00  0.00    +0.010 A 
ATOM     13  C   LIG    1        3.485  -1.847   1.270  0.00  0.00    +0.100 C 
ATOM     14  C   LIG    1        3.626  -0.615   0.357  0.00  0.00    -0.050 A 
ATOM     15  C   LIG    1        0.002  -0.004   0.002  0.00  0.00    +0.020 A 
ENDROOT
TORSDOF 0
ENDMDL
MODEL      246
REMARK  Name = ZINC000071785441
REMARK                            x       y       z     vdW  Elec       q    Type
REMARK                         _______ _______ _______ _____ _____    ______ ____
ROOT
ATOM      1  C   LIG    1       -0.018   1.515   0.010  0.00  0.00    -0.020 C 
ATOM      2  C   LIG    1        1.141   2.145   0.003  0.00  0.00    -0.090 C 
ATOM      3  C   LIG    1        1.198   3.642  -0.264  0.00  0.00    +0.050 C 
ATOM      4  C   LIG    1        2.156   3.847  -1.446  0.00  0.00    +0.000 C 
ATOM      5  C   LIG    1        3.537   3.273  -1.139  0.00  0.00    +0.000 C 
ATOM      6  C   LIG    1        3.464   1.749  -0.952  0.00  0.00    +0.060 C 
ATOM      7  C   LIG    1        2.446   1.488   0.129  0.00  0.00    -0.090 C 
ATOM      8  C   LIG    1        2.733   0.723   1.179  0.00  0.00    -0.030 C 
ATOM      9  C   LIG    1        1.707   0.623   2.290  0.00  0.00    +0.030 C 
ATOM     10  C   LIG    1        0.966  -0.709   2.207  0.00  0.00    +0.010 C 
ATOM     11  C   LIG    1       -0.316  -0.543   1.393  0.00  0.00    +0.000 C 
ATOM     12  C   LIG    1        0.002  -0.004   0.002  0.00  0.00    +0.050 C 
ENDROOT
TORSDOF 0
ENDMDL
MODEL      247
REMARK  Name = ZINC000002572377
REMARK                            x       y       z     vdW  Elec       q    Type
REMARK                         _______ _______ _______ _____ _____    ______ ____
ROOT
ATOM      1  C   LIG    1        0.060   1.339  -2.788  0.00  0.00    -0.090 A 
ATOM      2  C   LIG    1        1.181   0.562  -2.521  0.00  0.00    +0.030 A 
ATOM      3  C   LIG    1        1.927   0.048  -3.564  0.00  0.00    +0.050 A 
ATOM      4  C   LIG    1        1.558   0.306  -4.873  0.00  0.00    -0.030 A 
ATOM      5  C   LIG    1        0.442   1.079  -5.141  0.00  0.00    +0.050 A 
ATOM      6 CL   LIG    1        2.499  -0.341  -6.181  0.00  0.00    -0.060 Cl
ATOM      7  C   LIG    1       -0.310   1.591  -4.103  0.00  0.00    +0.060 A 
ENDROOT
BRANCH   1   8
ATOM      8  S   LIG    1       -0.894   1.996  -1.460  0.00  0.00    -0.080 S 
BRANCH   8  10
ATOM      9  F   LIG    1        0.002  -0.004   0.002  0.00  0.00    -0.180 F 
ATOM     10  C   LIG    1       -0.017   1.395   0.010  0.00  0.00    +0.430 C 
ATOM     11  F   LIG    1        1.296   1.879  -0.000  0.00  0.00    -0.180 F 
ENDBRANCH   8  10
ENDBRANCH   1   8
TORSDOF 2
ENDMDL
MODEL      248
REMARK  Name = ZINC000001598545
REMARK                            x       y       z     vdW  Elec       q    Type
REMARK                         _______ _______ _______ _____ _____    ______ ____
ROOT
ATOM      1  C   LIG    1       -0.018   1.506   0.010  0.00  0.00    +0.010 C 
ATOM      2  C   LIG    1        1.244   1.938   0.001  0.00  0.00    -0.060 C 
ATOM      3  C   LIG    1        2.188   0.799  -0.015  0.00  0.00    -0.060 A 
ATOM      4  C   LIG    1        3.583   0.746  -0.029  0.00  0.00    +0.020 A 
ATOM      5  C   LIG    1        4.224  -0.476  -0.042  0.00  0.00    +0.010 A 
ATOM      6  C   LIG    1        3.493  -1.649  -0.042  0.00  0.00    +0.010 A 
ATOM      7  C   LIG    1        2.109  -1.605  -0.028  0.00  0.00    +0.020 A 
ATOM      8  C   LIG    1        1.461  -0.391  -0.014  0.00  0.00    -0.100 A 
ATOM      9  C   LIG    1        0.002  -0.004   0.002  0.00  0.00    +0.130 C 
ENDROOT
BRANCH   2  10
ATOM     10  C   LIG    1        1.647   3.366   0.005  0.00  0.00    -0.040 A 
ATOM     11  C   LIG    1        2.312   3.909  -1.093  0.00  0.00    +0.020 A 
ATOM     12  C   LIG    1        2.684   5.238  -1.083  0.00  0.00    +0.000 A 
ATOM     13  C   LIG    1        2.398   6.030   0.014  0.00  0.00    +0.000 A 
ATOM     14  C   LIG    1        1.739   5.497   1.107  0.00  0.00    +0.000 A 
ATOM     15  C   LIG    1        1.356   4.171   1.105  0.00  0.00    +0.010 A 
ENDBRANCH   2  10
TORSDOF 1
ENDMDL
MODEL      249
REMARK  Name = ZINC000071782924
REMARK                            x       y       z     vdW  Elec       q    Type
REMARK                         _______ _______ _______ _____ _____    ______ ____
ROOT
ATOM      1  C   LIG    1       -0.018   1.448   0.010  0.00  0.00    -0.010 C 
ATOM      2  C   LIG    1        1.058   2.229   0.004  0.00  0.00    -0.010 C 
ATOM      3  C   LIG    1        2.432   1.760  -0.012  0.00  0.00    -0.030 C 
ATOM      4  C   LIG    1        2.849   0.724   0.697  0.00  0.00    -0.010 C 
ATOM      5  C   LIG    1        1.910  -0.064   1.566  0.00  0.00    +0.060 C 
ATOM      6  C   LIG    1        0.863  -0.717   0.709  0.00  0.00    -0.010 C 
ATOM      7  C   LIG    1        0.002  -0.004   0.002  0.00  0.00    -0.020 C 
ENDROOT
BRANCH   5   8
ATOM      8  C   LIG    1        1.236   0.873   2.570  0.00  0.00    +0.060 C 
ATOM      9  C   LIG    1        0.296   0.085   3.438  0.00  0.00    -0.010 C 
ATOM     10  C   LIG    1        0.713  -0.952   4.148  0.00  0.00    -0.020 C 
ATOM     11  C   LIG    1        2.087  -1.421   4.131  0.00  0.00    -0.010 C 
ATOM     12  C   LIG    1        3.163  -0.641   4.125  0.00  0.00    -0.010 C 
ATOM     13  C   LIG    1        3.144   0.811   4.135  0.00  0.00    -0.030 C 
ATOM     14  C   LIG    1        2.284   1.526   3.428  0.00  0.00    -0.010 C 
ENDBRANCH   5   8
TORSDOF 1
ENDMDL
MODEL      250
REMARK  Name = ZINC000002011549
REMARK                            x       y       z     vdW  Elec       q    Type
REMARK                         _______ _______ _______ _____ _____    ______ ____
ROOT
ATOM      1  C   LIG    1        1.596  -2.538   2.386  0.00  0.00    -0.080 A 
ATOM      2  C   LIG    1        1.239  -2.221   3.684  0.00  0.00    +0.000 A 
ATOM      3  C   LIG    1        2.003  -2.677   4.742  0.00  0.00    +0.000 A 
ATOM      4  C   LIG    1        3.123  -3.451   4.502  0.00  0.00    -0.010 A 
ATOM      5  C   LIG    1        3.479  -3.769   3.205  0.00  0.00    +0.000 A 
ATOM      6  C   LIG    1        2.713  -3.317   2.147  0.00  0.00    +0.000 A 
ENDROOT
BRANCH   1   7
ATOM      7  C   LIG    1        0.763  -2.041   1.233  0.00  0.00    +0.030 C 
ATOM      8  C   LIG    1       -0.666  -2.571   1.370  0.00  0.00    +0.030 C 
BRANCH   7   9
ATOM      9  C   LIG    1        0.742  -0.511   1.242  0.00  0.00    +0.010 C 
BRANCH   9  11
ATOM     10  C   LIG    1       -0.019   1.526   0.010  0.00  0.00    +0.000 C 
ATOM     11  C   LIG    1        0.002  -0.004   0.002  0.00  0.00    -0.010 C 
ENDBRANCH   9  11
ENDBRANCH   7   9
ENDBRANCH   1   7
TORSDOF 3
ENDMDL
MODEL      251
REMARK  Name = ZINC000057988190
REMARK                            x       y       z     vdW  Elec       q    Type
REMARK                         _______ _______ _______ _____ _____    ______ ____
ROOT
ATOM      1  C   LIG    1       -0.018   1.503   0.010  0.00  0.00    -0.060 C 
ATOM      2  C   LIG    1        1.107   2.173   0.003  0.00  0.00    -0.040 C 
ATOM      3  C   LIG    1        1.086   3.680   0.011  0.00  0.00    +0.040 C 
ATOM      4  C   LIG    1        1.822   4.194   1.250  0.00  0.00    +0.000 C 
ATOM      5  C   LIG    1        1.269   3.499   2.496  0.00  0.00    +0.010 C 
ATOM      6  C   LIG    1        2.126   2.273   2.818  0.00  0.00    +0.010 C 
ATOM      7  C   LIG    1        1.218   1.066   3.060  0.00  0.00    +0.010 C 
ATOM      8  C   LIG    1        1.500  -0.004   2.002  0.00  0.00    +0.000 C 
ATOM      9  C   LIG    1        0.177  -0.519   1.433  0.00  0.00    +0.000 C 
ATOM     10  C   LIG    1        0.002  -0.004   0.002  0.00  0.00    +0.050 C 
ENDROOT
TORSDOF 0
ENDMDL
MODEL      252
REMARK  Name = ZINC000049952419
REMARK                            x       y       z     vdW  Elec       q    Type
REMARK                         _______ _______ _______ _____ _____    ______ ____
ROOT
ATOM      1  C   LIG    1       -0.017   1.405   0.010  0.00  0.00    -0.020 C 
ATOM      2  C   LIG    1        1.241   1.891   0.000  0.00  0.00    -0.010 C 
ATOM      3  C   LIG    1        2.152   0.730  -0.015  0.00  0.00    -0.120 C 
ATOM      4  C   LIG    1        1.273  -0.456  -0.013  0.00  0.00    -0.010 C 
ATOM      5  C   LIG    1        3.506   0.748  -0.027  0.00  0.00    +0.020 C 
ATOM      6  C   LIG    1        4.306   2.042  -0.021  0.00  0.00    +0.030 C 
ATOM      7  C   LIG    1        5.208   2.015   1.220  0.00  0.00    +0.030 C 
ATOM      8  C   LIG    1        6.092   0.770   1.194  0.00  0.00    -0.020 C 
ATOM      9  C   LIG    1        6.972   0.794  -0.058  0.00  0.00    +0.030 C 
ATOM     10  C   LIG    1        6.070   0.796  -1.294  0.00  0.00    -0.020 C 
ATOM     11  C   LIG    1        5.218  -0.473  -1.305  0.00  0.00    +0.030 C 
ATOM     12  C   LIG    1        5.241  -0.499   1.194  0.00  0.00    +0.030 C 
ATOM     13  C   LIG    1        5.185   2.042  -1.278  0.00  0.00    +0.030 C 
ATOM     14  C   LIG    1        4.341  -0.523  -0.042  0.00  0.00    +0.030 C 
ATOM     15  C   LIG    1        0.002  -0.004   0.002  0.00  0.00    -0.020 C 
ENDROOT
TORSDOF 0
ENDMDL
MODEL      253
REMARK  Name = ZINC000002540298
REMARK                            x       y       z     vdW  Elec       q    Type
REMARK                         _______ _______ _______ _____ _____    ______ ____
ROOT
ATOM      1  C   LIG    1       -0.449   1.785  -1.523  0.00  0.00    -0.140 A 
ATOM      2  C   LIG    1       -1.393   0.985  -2.139  0.00  0.00    +0.060 A 
ATOM      3  C   LIG    1       -2.359   1.554  -2.949  0.00  0.00    +0.040 A 
ATOM      4  C   LIG    1       -2.381   2.922  -3.141  0.00  0.00    +0.040 A 
ATOM      5  C   LIG    1       -1.438   3.722  -2.524  0.00  0.00    +0.050 A 
ATOM      6  C   LIG    1       -0.474   3.154  -1.711  0.00  0.00    -0.140 A 
ENDROOT
BRANCH   1   8
ATOM      7  F   LIG    1        0.006   0.673   0.524  0.00  0.00    -0.190 F 
ATOM      8  C   LIG    1        0.604   1.165  -0.641  0.00  0.00    +0.420 C 
ATOM      9  F   LIG    1        1.226   0.114  -1.324  0.00  0.00    -0.200 F 
ENDBRANCH   1   8
BRANCH   6  10
ATOM     10  C   LIG    1        0.554   4.026  -1.038  0.00  0.00    +0.440 C 
ATOM     11  F   LIG    1        0.668   3.659   0.307  0.00  0.00    -0.190 F 
ATOM     12  F   LIG    1        0.158   5.365  -1.125  0.00  0.00    -0.190 F 
ENDBRANCH   6  10
TORSDOF 2
ENDMDL
MODEL      254
REMARK  Name = ZINC000020550984
REMARK                            x       y       z     vdW  Elec       q    Type
REMARK                         _______ _______ _______ _____ _____    ______ ____
ROOT
ATOM      1  N   LIG    1        1.639  -2.482  -2.350  0.00  0.00    -0.740 N 
ATOM      2  H   LIG    1        1.679  -1.948  -3.158  0.00  0.00    +0.400 HD
ENDROOT
BRANCH   1   3
ATOM      3  C   LIG    1        2.333  -3.692  -2.277  0.00  0.00    +0.220 A 
ATOM      4  C   LIG    1        2.272  -4.461  -1.122  0.00  0.00    -0.080 A 
ATOM      5  C   LIG    1        2.960  -5.657  -1.054  0.00  0.00    +0.040 A 
ATOM      6  C   LIG    1        3.709  -6.089  -2.133  0.00  0.00    -0.060 A 
ATOM      7  C   LIG    1        3.772  -5.325  -3.284  0.00  0.00    +0.050 A 
ATOM      8  C   LIG    1        3.082  -4.131  -3.361  0.00  0.00    -0.170 A 
ATOM      9  C   LIG    1        3.152  -3.300  -4.616  0.00  0.00    +0.080 C 
ENDBRANCH   1   3
BRANCH   1  10
ATOM     10  C   LIG    1        0.849  -2.021  -1.205  0.00  0.00    +0.230 C 
ATOM     11  C   LIG    1       -0.542  -2.655  -1.256  0.00  0.00    +0.020 C 
BRANCH  10  12
ATOM     12  C   LIG    1        0.718  -0.497  -1.257  0.00  0.00    -0.020 C 
ATOM     13  C   LIG    1       -0.089  -0.097  -2.493  0.00  0.00    +0.020 C 
BRANCH  12  15
ATOM     14  C   LIG    1       -0.019   1.526   0.010  0.00  0.00    +0.020 C 
ATOM     15  C   LIG    1        0.002  -0.004   0.002  0.00  0.00    +0.010 C 
ENDBRANCH  12  15
ENDBRANCH  10  12
ENDBRANCH   1  10
TORSDOF 4
ENDMDL
MODEL      255
REMARK  Name = ZINC000066323376
REMARK                            x       y       z     vdW  Elec       q    Type
REMARK                         _______ _______ _______ _____ _____    ______ ____
ROOT
ATOM      1  C   LIG    1       -0.746   1.894  -1.211  0.00  0.00    -0.170 A 
ATOM      2  C   LIG    1       -1.762   1.139  -1.766  0.00  0.00    +0.090 A 
ATOM      3  C   LIG    1       -2.430   1.597  -2.887  0.00  0.00    +0.030 A 
ATOM      4  C   LIG    1       -2.083   2.810  -3.451  0.00  0.00    +0.100 A 
ATOM      5  C   LIG    1       -1.068   3.566  -2.895  0.00  0.00    -0.180 A 
ATOM      6  C   LIG    1       -0.402   3.110  -1.772  0.00  0.00    +0.100 A 
ENDROOT
BRANCH   5   7
ATOM      7  C   LIG    1       -0.689   4.888  -3.510  0.00  0.00    +0.510 C 
ATOM      8  F   LIG    1        0.652   4.851  -3.908  0.00  0.00    -0.170 F 
ATOM      9  F   LIG    1       -0.868   5.909  -2.570  0.00  0.00    -0.170 F 
ATOM     10  F   LIG    1       -1.499   5.133  -4.624  0.00  0.00    -0.170 F 
ENDBRANCH   5   7
BRANCH   1  12
ATOM     11  F   LIG    1        0.002  -0.004   0.002  0.00  0.00    -0.200 F 
ATOM     12  C   LIG    1       -0.017   1.395   0.010  0.00  0.00    +0.450 C 
ATOM     13  F   LIG    1        1.296   1.879  -0.000  0.00  0.00    -0.200 F 
ENDBRANCH   1  12
TORSDOF 2
ENDMDL
MODEL      256
REMARK  Name = ZINC000002379325
REMARK                            x       y       z     vdW  Elec       q    Type
REMARK                         _______ _______ _______ _____ _____    ______ ____
ROOT
ATOM      1  C   LIG    1       -0.746   1.894  -1.211  0.00  0.00    -0.150 A 
ATOM      2  C   LIG    1       -1.762   1.139  -1.767  0.00  0.00    +0.050 A 
ATOM      3  C   LIG    1       -2.430   1.597  -2.886  0.00  0.00    +0.050 A 
ATOM      4  C   LIG    1       -2.083   2.810  -3.451  0.00  0.00    -0.150 A 
ATOM      5  C   LIG    1       -1.068   3.566  -2.894  0.00  0.00    +0.050 A 
ATOM      6  C   LIG    1       -0.402   3.110  -1.772  0.00  0.00    +0.050 A 
ENDROOT
BRANCH   1   8
ATOM      7  F   LIG    1        0.002  -0.004   0.002  0.00  0.00    -0.200 F 
ATOM      8  C   LIG    1       -0.017   1.395   0.010  0.00  0.00    +0.440 C 
ATOM      9  F   LIG    1        1.296   1.879  -0.000  0.00  0.00    -0.200 F 
ENDBRANCH   1   8
BRANCH   4  10
ATOM     10  C   LIG    1       -2.812   3.309  -4.672  0.00  0.00    +0.440 C 
ATOM     11  F   LIG    1       -3.248   2.219  -5.432  0.00  0.00    -0.200 F 
ATOM     12  F   LIG    1       -1.949   4.098  -5.440  0.00  0.00    -0.200 F 
ENDBRANCH   4  10
TORSDOF 2
ENDMDL
MODEL      257
REMARK  Name = ZINC000066323193
REMARK                            x       y       z     vdW  Elec       q    Type
REMARK                         _______ _______ _______ _____ _____    ______ ____
ROOT
ATOM      1  C   LIG    1       -0.746   1.894  -1.211  0.00  0.00    -0.160 A 
ATOM      2  C   LIG    1       -0.469   3.172  -1.726  0.00  0.00    -0.020 A 
ATOM      3  C   LIG    1        0.485   4.010  -1.124  0.00  0.00    +0.020 A 
ATOM      4  C   LIG    1        0.728   5.241  -1.650  0.00  0.00    +0.020 A 
ATOM      5  C   LIG    1        0.043   5.686  -2.780  0.00  0.00    +0.020 A 
ATOM      6  C   LIG    1       -0.888   4.902  -3.389  0.00  0.00    +0.030 A 
ATOM      7  C   LIG    1       -1.165   3.624  -2.875  0.00  0.00    -0.060 A 
ATOM      8  C   LIG    1       -2.118   2.786  -3.477  0.00  0.00    +0.050 A 
ATOM      9  C   LIG    1       -2.360   1.554  -2.951  0.00  0.00    +0.000 A 
ATOM     10  C   LIG    1       -1.672   1.107  -1.825  0.00  0.00    +0.060 A 
ENDROOT
BRANCH   1  12
ATOM     11  F   LIG    1        1.358   1.362  -0.249  0.00  0.00    -0.200 F 
ATOM     12  C   LIG    1       -0.017   1.395   0.010  0.00  0.00    +0.430 C 
ATOM     13  F   LIG    1       -0.268   2.252   1.086  0.00  0.00    -0.200 F 
ENDBRANCH   1  12
TORSDOF 1
ENDMDL
MODEL      258
REMARK  Name = ZINC000059281901
REMARK                            x       y       z     vdW  Elec       q    Type
REMARK                         _______ _______ _______ _____ _____    ______ ____
ROOT
ATOM      1  C   LIG    1       -0.746   1.894  -1.211  0.00  0.00    -0.170 A 
ATOM      2  C   LIG    1       -1.768   1.124  -1.763  0.00  0.00    +0.040 A 
ATOM      3  C   LIG    1       -2.446   1.546  -2.865  0.00  0.00    +0.030 A 
ATOM      4  C   LIG    1       -2.113   2.776  -3.458  0.00  0.00    -0.040 A 
ATOM      5  C   LIG    1       -2.791   3.244  -4.596  0.00  0.00    +0.020 A 
ATOM      6  C   LIG    1       -2.441   4.441  -5.143  0.00  0.00    +0.020 A 
ATOM      7  C   LIG    1       -1.418   5.210  -4.592  0.00  0.00    +0.010 A 
ATOM      8  C   LIG    1       -0.740   4.788  -3.490  0.00  0.00    +0.030 A 
ATOM      9  C   LIG    1       -1.073   3.558  -2.897  0.00  0.00    -0.060 A 
ATOM     10  C   LIG    1       -0.399   3.093  -1.756  0.00  0.00    +0.070 A 
ENDROOT
BRANCH   1  12
ATOM     11  F   LIG    1        0.002  -0.004   0.002  0.00  0.00    -0.200 F 
ATOM     12  C   LIG    1       -0.017   1.395   0.010  0.00  0.00    +0.430 C 
ATOM     13  F   LIG    1        1.296   1.879  -0.000  0.00  0.00    -0.200 F 
ENDBRANCH   1  12
TORSDOF 1
ENDMDL
MODEL      259
REMARK  Name = ZINC000021010014
REMARK                            x       y       z     vdW  Elec       q    Type
REMARK                         _______ _______ _______ _____ _____    ______ ____
ROOT
ATOM      1  N   LIG    1        1.587  -2.596  -2.456  0.00  0.00    -0.740 N 
ATOM      2  H   LIG    1        1.921  -1.962  -3.109  0.00  0.00    +0.400 HD
ENDROOT
BRANCH   1   3
ATOM      3  C   LIG    1        1.853  -3.961  -2.608  0.00  0.00    +0.190 A 
ATOM      4  C   LIG    1        1.371  -4.871  -1.678  0.00  0.00    -0.050 A 
ATOM      5  C   LIG    1        1.634  -6.219  -1.830  0.00  0.00    +0.050 A 
ATOM      6  C   LIG    1        2.378  -6.662  -2.908  0.00  0.00    -0.020 A 
ATOM      7  C   LIG    1        2.861  -5.759  -3.838  0.00  0.00    +0.020 A 
ATOM      8  C   LIG    1        2.596  -4.410  -3.695  0.00  0.00    +0.020 A 
ATOM      9  F   LIG    1        3.067  -3.528  -4.603  0.00  0.00    -0.150 F 
ENDBRANCH   1   3
BRANCH   1  10
ATOM     10  C   LIG    1        0.805  -2.125  -1.311  0.00  0.00    +0.260 C 
BRANCH  10  11
ATOM     11  C   LIG    1        0.766  -0.596  -1.314  0.00  0.00    -0.020 C 
BRANCH  11  13
ATOM     12  C   LIG    1       -0.284   1.415  -0.267  0.00  0.00    +0.020 C 
ATOM     13  C   LIG    1       -0.146  -0.106  -0.187  0.00  0.00    +0.010 C 
ENDBRANCH  11  13
BRANCH  11  14
ATOM     14  C   LIG    1        2.179  -0.050  -1.099  0.00  0.00    +0.010 C 
ATOM     15  C   LIG    1        2.716  -0.539   0.248  0.00  0.00    +0.010 C 
ENDBRANCH  11  14
ENDBRANCH  10  11
ENDBRANCH   1  10
TORSDOF 5
ENDMDL
MODEL      260
REMARK  Name = ZINC000021011987
REMARK                            x       y       z     vdW  Elec       q    Type
REMARK                         _______ _______ _______ _____ _____    ______ ____
ROOT
ATOM      1  N   LIG    1        1.364  -2.523   2.486  0.00  0.00    -0.740 N 
ATOM      2  H   LIG    1        1.475  -1.943   3.255  0.00  0.00    +0.400 HD
ENDROOT
BRANCH   1   3
ATOM      3  C   LIG    1        1.880  -3.820   2.509  0.00  0.00    +0.210 A 
ATOM      4  C   LIG    1        1.727  -4.650   1.405  0.00  0.00    -0.080 A 
ATOM      5  C   LIG    1        2.239  -5.933   1.432  0.00  0.00    +0.050 A 
ATOM      6  C   LIG    1        2.903  -6.391   2.555  0.00  0.00    -0.150 A 
ATOM      7  C   LIG    1        3.057  -5.568   3.655  0.00  0.00    +0.050 A 
ATOM      8  C   LIG    1        3.460  -7.791   2.580  0.00  0.00    +0.070 C 
ATOM      9  C   LIG    1        2.552  -4.282   3.633  0.00  0.00    -0.070 A 
ENDBRANCH   1   3
BRANCH   1  10
ATOM     10  C   LIG    1        0.655  -2.037   1.299  0.00  0.00    +0.230 C 
ATOM     11  C   LIG    1       -0.812  -2.462   1.372  0.00  0.00    +0.020 C 
BRANCH  10  12
ATOM     12  C   LIG    1        0.742  -0.511   1.242  0.00  0.00    -0.030 C 
ATOM     13  C   LIG    1        2.210  -0.086   1.169  0.00  0.00    +0.020 C 
BRANCH  12  15
ATOM     14  C   LIG    1       -0.019   1.526   0.010  0.00  0.00    +0.020 C 
ATOM     15  C   LIG    1        0.002  -0.004   0.002  0.00  0.00    +0.010 C 
ENDBRANCH  12  15
ENDBRANCH  10  12
ENDBRANCH   1  10
TORSDOF 4
ENDMDL
MODEL      261
REMARK  Name = ZINC000002037481
REMARK                            x       y       z     vdW  Elec       q    Type
REMARK                         _______ _______ _______ _____ _____    ______ ____
ROOT
ATOM      1  C   LIG    1       -0.017   1.378   0.010  0.00  0.00    -0.010 A 
ATOM      2  C   LIG    1        1.171   2.086   0.002  0.00  0.00    +0.000 A 
ATOM      3  C   LIG    1        2.377   1.411  -0.013  0.00  0.00    +0.000 A 
ATOM      4  C   LIG    1        2.396   0.029  -0.020  0.00  0.00    -0.080 A 
ATOM      5  C   LIG    1        1.208  -0.679  -0.011  0.00  0.00    +0.000 A 
ATOM      6  C   LIG    1        0.002  -0.004   0.002  0.00  0.00    +0.000 A 
ENDROOT
BRANCH   4   7
ATOM      7  C   LIG    1        3.711  -0.707  -0.037  0.00  0.00    +0.030 C 
ATOM      8  C   LIG    1        3.791  -1.589  -1.285  0.00  0.00    +0.070 C 
ATOM      9  C   LIG    1        4.964  -2.520  -1.186  0.00  0.00    -0.060 C 
ATOM     10  C   LIG    1        5.584  -2.790  -0.082  0.00  0.00    -0.060 C 
ATOM     11  C   LIG    1        5.224  -2.202   1.251  0.00  0.00    +0.050 C 
ATOM     12  C   LIG    1        3.817  -1.603   1.203  0.00  0.00    +0.030 C 
ENDBRANCH   4   7
TORSDOF 1
ENDMDL
MODEL      262
REMARK  Name = ZINC000021801073
REMARK                            x       y       z     vdW  Elec       q    Type
REMARK                         _______ _______ _______ _____ _____    ______ ____
ROOT
ATOM      1  N   LIG    1        1.535  -2.493  -2.410  0.00  0.00    -0.740 N 
ATOM      2  H   LIG    1        2.131  -1.900  -2.893  0.00  0.00    +0.400 HD
ENDROOT
BRANCH   1   3
ATOM      3  C   LIG    1        1.330  -3.798  -2.864  0.00  0.00    +0.250 A 
ATOM      4  C   LIG    1        0.472  -4.647  -2.177  0.00  0.00    -0.080 A 
ATOM      5  C   LIG    1        0.270  -5.937  -2.628  0.00  0.00    +0.090 A 
ATOM      6  C   LIG    1        0.921  -6.385  -3.762  0.00  0.00    -0.090 A 
ATOM      7  C   LIG    1        1.779  -5.542  -4.450  0.00  0.00    +0.150 A 
ATOM      8  F   LIG    1        2.414  -5.983  -5.558  0.00  0.00    -0.140 F 
ATOM      9  C   LIG    1        1.979  -4.247  -4.007  0.00  0.00    -0.110 A 
ENDBRANCH   1   3
BRANCH   1  10
ATOM     10  C   LIG    1        0.849  -2.021  -1.205  0.00  0.00    +0.230 C 
ATOM     11  C   LIG    1        1.657  -2.422   0.031  0.00  0.00    +0.020 C 
BRANCH  10  12
ATOM     12  C   LIG    1        0.718  -0.497  -1.257  0.00  0.00    -0.030 C 
ATOM     13  C   LIG    1       -0.089  -0.097  -2.493  0.00  0.00    +0.030 C 
BRANCH  12  15
ATOM     14  C   LIG    1       -0.019   1.526   0.010  0.00  0.00    +0.020 C 
ATOM     15  C   LIG    1        0.002  -0.004   0.002  0.00  0.00    +0.010 C 
ENDBRANCH  12  15
ENDBRANCH  10  12
ENDBRANCH   1  10
TORSDOF 4
ENDMDL
MODEL      263
REMARK  Name = ZINC000021519083
REMARK                            x       y       z     vdW  Elec       q    Type
REMARK                         _______ _______ _______ _____ _____    ______ ____
ROOT
ATOM      1  N   LIG    1        1.639  -2.482  -2.350  0.00  0.00    -0.740 N 
ATOM      2  H   LIG    1        1.679  -1.948  -3.158  0.00  0.00    +0.400 HD
ENDROOT
BRANCH   1   3
ATOM      3  C   LIG    1        2.333  -3.692  -2.277  0.00  0.00    +0.220 A 
ATOM      4  C   LIG    1        2.272  -4.461  -1.122  0.00  0.00    -0.090 A 
ATOM      5  C   LIG    1        2.960  -5.657  -1.054  0.00  0.00    +0.050 A 
ATOM      6  C   LIG    1        3.709  -6.089  -2.133  0.00  0.00    -0.060 A 
ATOM      7  C   LIG    1        3.772  -5.325  -3.284  0.00  0.00    -0.040 A 
ATOM      8  C   LIG    1        4.589  -5.799  -4.458  0.00  0.00    +0.080 C 
ATOM      9  C   LIG    1        3.082  -4.131  -3.361  0.00  0.00    -0.080 A 
ENDBRANCH   1   3
BRANCH   1  10
ATOM     10  C   LIG    1        0.849  -2.021  -1.205  0.00  0.00    +0.230 C 
ATOM     11  C   LIG    1       -0.542  -2.655  -1.256  0.00  0.00    +0.020 C 
BRANCH  10  12
ATOM     12  C   LIG    1        0.718  -0.497  -1.257  0.00  0.00    -0.020 C 
ATOM     13  C   LIG    1       -0.089  -0.097  -2.493  0.00  0.00    +0.020 C 
BRANCH  12  15
ATOM     14  C   LIG    1       -0.019   1.526   0.010  0.00  0.00    +0.020 C 
ATOM     15  C   LIG    1        0.002  -0.004   0.002  0.00  0.00    +0.010 C 
ENDBRANCH  12  15
ENDBRANCH  10  12
ENDBRANCH   1  10
TORSDOF 4
ENDMDL
MODEL      264
REMARK  Name = ZINC000021519085
REMARK                            x       y       z     vdW  Elec       q    Type
REMARK                         _______ _______ _______ _____ _____    ______ ____
ROOT
ATOM      1  N   LIG    1        1.535  -2.493  -2.410  0.00  0.00    -0.740 N 
ATOM      2  H   LIG    1        2.131  -1.900  -2.893  0.00  0.00    +0.400 HD
ENDROOT
BRANCH   1   3
ATOM      3  C   LIG    1        1.330  -3.798  -2.864  0.00  0.00    +0.220 A 
ATOM      4  C   LIG    1        0.472  -4.647  -2.178  0.00  0.00    -0.090 A 
ATOM      5  C   LIG    1        0.271  -5.937  -2.630  0.00  0.00    +0.050 A 
ATOM      6  C   LIG    1        0.923  -6.383  -3.764  0.00  0.00    -0.060 A 
ATOM      7  C   LIG    1        1.778  -5.540  -4.450  0.00  0.00    -0.040 A 
ATOM      8  C   LIG    1        2.487  -6.031  -5.687  0.00  0.00    +0.080 C 
ATOM      9  C   LIG    1        1.979  -4.248  -4.007  0.00  0.00    -0.080 A 
ENDBRANCH   1   3
BRANCH   1  10
ATOM     10  C   LIG    1        0.849  -2.021  -1.205  0.00  0.00    +0.230 C 
ATOM     11  C   LIG    1        1.657  -2.422   0.031  0.00  0.00    +0.020 C 
BRANCH  10  12
ATOM     12  C   LIG    1        0.718  -0.497  -1.257  0.00  0.00    -0.030 C 
ATOM     13  C   LIG    1       -0.089  -0.097  -2.493  0.00  0.00    +0.020 C 
BRANCH  12  15
ATOM     14  C   LIG    1       -0.019   1.526   0.010  0.00  0.00    +0.020 C 
ATOM     15  C   LIG    1        0.002  -0.004   0.002  0.00  0.00    +0.010 C 
ENDBRANCH  12  15
ENDBRANCH  10  12
ENDBRANCH   1  10
TORSDOF 4
ENDMDL
MODEL      265
REMARK  Name = ZINC000021801068
REMARK                            x       y       z     vdW  Elec       q    Type
REMARK                         _______ _______ _______ _____ _____    ______ ____
ROOT
ATOM      1  N   LIG    1        1.639  -2.482  -2.350  0.00  0.00    -0.740 N 
ATOM      2  H   LIG    1        1.679  -1.948  -3.158  0.00  0.00    +0.400 HD
ENDROOT
BRANCH   1   3
ATOM      3  C   LIG    1        2.333  -3.692  -2.277  0.00  0.00    +0.250 A 
ATOM      4  C   LIG    1        2.272  -4.461  -1.122  0.00  0.00    -0.080 A 
ATOM      5  C   LIG    1        2.960  -5.657  -1.052  0.00  0.00    +0.090 A 
ATOM      6  C   LIG    1        3.709  -6.090  -2.129  0.00  0.00    -0.090 A 
ATOM      7  C   LIG    1        3.773  -5.326  -3.283  0.00  0.00    +0.150 A 
ATOM      8  F   LIG    1        4.507  -5.751  -4.335  0.00  0.00    -0.140 F 
ATOM      9  C   LIG    1        3.082  -4.131  -3.361  0.00  0.00    -0.110 A 
ENDBRANCH   1   3
BRANCH   1  10
ATOM     10  C   LIG    1        0.849  -2.021  -1.205  0.00  0.00    +0.230 C 
ATOM     11  C   LIG    1       -0.542  -2.655  -1.256  0.00  0.00    +0.020 C 
BRANCH  10  12
ATOM     12  C   LIG    1        0.718  -0.497  -1.257  0.00  0.00    -0.020 C 
ATOM     13  C   LIG    1       -0.089  -0.097  -2.493  0.00  0.00    +0.020 C 
BRANCH  12  15
ATOM     14  C   LIG    1       -0.019   1.526   0.010  0.00  0.00    +0.010 C 
ATOM     15  C   LIG    1        0.002  -0.004   0.002  0.00  0.00    +0.010 C 
ENDBRANCH  12  15
ENDBRANCH  10  12
ENDBRANCH   1  10
TORSDOF 4
ENDMDL
MODEL      266
REMARK  Name = ZINC000077011862
REMARK                            x       y       z     vdW  Elec       q    Type
REMARK                         _______ _______ _______ _____ _____    ______ ____
ROOT
ATOM      1  F   LIG    1        0.002  -0.004   0.002  0.00  0.00    -0.200 F 
ATOM      2  C   LIG    1       -0.017   1.395   0.010  0.00  0.00    +0.290 C 
ATOM      3  C   LIG    1       -0.733   1.888   1.268  0.00  0.00    +0.030 C 
ATOM      4  C   LIG    1        0.007   1.381   2.508  0.00  0.00    +0.050 C 
ATOM      5  C   LIG    1        1.442   1.911   2.497  0.00  0.00    +0.030 C 
ATOM      6  C   LIG    1        2.159   1.417   1.238  0.00  0.00    +0.050 C 
ATOM      7  F   LIG    1       -0.694   1.858  -1.124  0.00  0.00    -0.200 F 
ATOM      8  C   LIG    1        1.419   1.924  -0.001  0.00  0.00    +0.030 C 
ENDROOT
BRANCH   5   9
ATOM      9  C   LIG    1        2.171   1.412   3.718  0.00  0.00    -0.080 A 
ATOM     10  C   LIG    1        2.323   0.053   3.925  0.00  0.00    +0.010 A 
ATOM     11  C   LIG    1        2.991  -0.405   5.045  0.00  0.00    +0.000 A 
ATOM     12  C   LIG    1        3.509   0.496   5.958  0.00  0.00    +0.000 A 
ATOM     13  C   LIG    1        3.358   1.854   5.750  0.00  0.00    +0.000 A 
ATOM     14  C   LIG    1        2.693   2.312   4.628  0.00  0.00    +0.000 A 
ENDBRANCH   5   9
TORSDOF 1
ENDMDL
MODEL      267
REMARK  Name = ZINC000002037482
REMARK                            x       y       z     vdW  Elec       q    Type
REMARK                         _______ _______ _______ _____ _____    ______ ____
ROOT
ATOM      1  C   LIG    1       -0.017   1.378   0.010  0.00  0.00    -0.010 A 
ATOM      2  C   LIG    1        1.171   2.086   0.002  0.00  0.00    +0.000 A 
ATOM      3  C   LIG    1        2.377   1.411  -0.013  0.00  0.00    +0.000 A 
ATOM      4  C   LIG    1        2.396   0.029  -0.020  0.00  0.00    -0.080 A 
ATOM      5  C   LIG    1        1.208  -0.679  -0.011  0.00  0.00    +0.000 A 
ATOM      6  C   LIG    1        0.002  -0.004   0.002  0.00  0.00    +0.000 A 
ENDROOT
BRANCH   4   7
ATOM      7  C   LIG    1        3.711  -0.707  -0.037  0.00  0.00    +0.030 C 
ATOM      8  C   LIG    1        3.816  -1.601   1.200  0.00  0.00    +0.070 C 
ATOM      9  C   LIG    1        4.987  -2.531   1.068  0.00  0.00    -0.060 C 
ATOM     10  C   LIG    1        5.585  -2.790  -0.051  0.00  0.00    -0.060 C 
ATOM     11  C   LIG    1        5.198  -2.188  -1.370  0.00  0.00    +0.050 C 
ATOM     12  C   LIG    1        3.792  -1.591  -1.288  0.00  0.00    +0.030 C 
ENDBRANCH   4   7
TORSDOF 1
ENDMDL
MODEL      268
REMARK  Name = ZINC000005133978
REMARK                            x       y       z     vdW  Elec       q    Type
REMARK                         _______ _______ _______ _____ _____    ______ ____
ROOT
ATOM      1  C   LIG    1       -0.018   1.490   0.010  0.00  0.00    -0.050 C 
ATOM      2  C   LIG    1        1.039   2.234   0.004  0.00  0.00    -0.050 C 
ATOM      3  C   LIG    1        2.435   1.696   0.020  0.00  0.00    +0.080 C 
ATOM      4  C   LIG    1        2.483   0.218  -0.308  0.00  0.00    -0.050 C 
ATOM      5  C   LIG    1        2.291  -0.041  -1.823  0.00  0.00    +0.130 C 
ATOM      6  S   LIG    1        2.014  -1.858  -1.839  0.00  0.00    -0.300 S 
ATOM      7  C   LIG    1        1.429  -2.022  -0.108  0.00  0.00    +0.130 C 
ATOM      8  C   LIG    1        3.843  -0.364   0.097  0.00  0.00    +0.030 C 
ATOM      9  C   LIG    1        4.011  -0.275   1.614  0.00  0.00    +0.000 C 
ATOM     10  C   LIG    1        2.913  -1.097   2.295  0.00  0.00    +0.020 C 
ATOM     11  C   LIG    1        1.547  -0.523   1.913  0.00  0.00    +0.040 C 
ATOM     12  C   LIG    1        1.368  -0.561   0.404  0.00  0.00    -0.050 C 
ATOM     13  C   LIG    1        0.002  -0.004   0.002  0.00  0.00    +0.070 C 
ENDROOT
TORSDOF 0
ENDMDL
MODEL      269
REMARK  Name = ZINC000059075584
REMARK                            x       y       z     vdW  Elec       q    Type
REMARK                         _______ _______ _______ _____ _____    ______ ____
ROOT
ATOM      1  C   LIG    1       -0.018   1.482   0.010  0.00  0.00    -0.050 C 
ATOM      2  C   LIG    1        1.066   2.197   0.004  0.00  0.00    -0.050 C 
ATOM      3  C   LIG    1        2.412   1.551  -0.011  0.00  0.00    +0.100 C 
ATOM      4  C   LIG    1        2.378   0.132   0.507  0.00  0.00    -0.110 C 
ATOM      5  C   LIG    1        1.312  -0.604   0.512  0.00  0.00    -0.110 C 
ATOM      6  C   LIG    1        1.093  -2.053   0.918  0.00  0.00    +0.070 C 
ATOM      7  C   LIG    1        2.321  -2.812   1.407  0.00  0.00    +0.010 C 
ATOM      8  C   LIG    1        2.684  -2.401   2.826  0.00  0.00    -0.010 C 
ATOM      9  C   LIG    1        2.447  -0.943   3.143  0.00  0.00    +0.010 C 
ATOM     10  C   LIG    1        3.673  -0.221   2.591  0.00  0.00    +0.010 C 
ATOM     11  C   LIG    1        3.706  -0.346   1.063  0.00  0.00    +0.050 C 
ATOM     12  C   LIG    1        0.002  -0.004   0.002  0.00  0.00    +0.080 C 
ENDROOT
TORSDOF 0
ENDMDL
MODEL      270
REMARK  Name = ZINC000003075453
REMARK                            x       y       z     vdW  Elec       q    Type
REMARK                         _______ _______ _______ _____ _____    ______ ____
ROOT
ATOM      1  C   LIG    1        3.711  -0.707  -0.037  0.00  0.00    +0.070 C 
ATOM      2  C   LIG    1        3.740  -1.669  -1.205  0.00  0.00    -0.050 C 
ATOM      3  C   LIG    1        2.738  -2.458  -1.429  0.00  0.00    -0.030 C 
ATOM      4  C   LIG    1        1.525  -2.429  -0.523  0.00  0.00    +0.040 C 
ATOM      5  C   LIG    1        1.903  -3.056   0.821  0.00  0.00    +0.010 C 
ATOM      6  C   LIG    1        2.525  -2.021   1.741  0.00  0.00    -0.000 C 
ATOM      7  C   LIG    1        3.871  -1.503   1.260  0.00  0.00    +0.030 C 
ENDROOT
BRANCH   1  11
ATOM      8  C   LIG    1       -0.016   1.379   0.011  0.00  0.00    +0.000 A 
ATOM      9  C   LIG    1        0.701   1.218   1.182  0.00  0.00    +0.000 A 
ATOM     10  C   LIG    1        1.907   0.543   1.166  0.00  0.00    +0.010 A 
ATOM     11  C   LIG    1        2.396   0.029  -0.020  0.00  0.00    -0.070 A 
ATOM     12  C   LIG    1        1.678   0.189  -1.191  0.00  0.00    +0.020 A 
ATOM     13  C   LIG    1        0.473   0.865  -1.176  0.00  0.00    -0.010 A 
ENDBRANCH   1  11
TORSDOF 1
ENDMDL
MODEL      271
REMARK  Name = ZINC000071785755
REMARK                            x       y       z     vdW  Elec       q    Type
REMARK                         _______ _______ _______ _____ _____    ______ ____
ROOT
ATOM      1  C   LIG    1       -0.018   1.468   0.010  0.00  0.00    -0.020 C 
ATOM      2  C   LIG    1        1.120   2.149   0.003  0.00  0.00    -0.020 C 
ATOM      3  C   LIG    1        2.449   1.439  -0.005  0.00  0.00    -0.020 C 
ATOM      4  C   LIG    1        3.438   2.243   0.870  0.00  0.00    +0.030 C 
ATOM      5  C   LIG    1        2.968   1.924   2.311  0.00  0.00    +0.000 C 
ATOM      6  C   LIG    1        2.235   0.568   2.238  0.00  0.00    +0.020 C 
ATOM      7  C   LIG    1        2.954   1.271  -1.419  0.00  0.00    +0.020 C 
ATOM      8  C   LIG    1        4.247   0.457  -1.458  0.00  0.00    +0.000 C 
ATOM      9  C   LIG    1        3.965  -0.922  -0.850  0.00  0.00    +0.000 C 
ATOM     10  C   LIG    1        3.592  -0.735   0.619  0.00  0.00    +0.030 C 
ATOM     11  C   LIG    1        2.335   0.113   0.762  0.00  0.00    -0.020 C 
ATOM     12  C   LIG    1        1.110  -0.644   0.362  0.00  0.00    -0.020 C 
ATOM     13  C   LIG    1        0.002  -0.004   0.002  0.00  0.00    -0.010 C 
ENDROOT
TORSDOF 0
ENDMDL
MODEL      272
REMARK  Name = ZINC000003198817
REMARK                            x       y       z     vdW  Elec       q    Type
REMARK                         _______ _______ _______ _____ _____    ______ ____
ROOT
ATOM      1  C   LIG    1       -0.018   1.470   0.010  0.00  0.00    +0.010 C 
ATOM      2  C   LIG    1        1.209   1.962   0.001  0.00  0.00    +0.010 C 
ATOM      3  C   LIG    1        2.182   0.807  -0.014  0.00  0.00    +0.110 C 
ATOM      4  C   LIG    1        1.329  -0.438  -0.013  0.00  0.00    -0.090 A 
ATOM      5  C   LIG    1        1.624  -1.781  -0.023  0.00  0.00    +0.030 A 
ATOM      6  C   LIG    1        0.600  -2.714  -0.019  0.00  0.00    +0.010 A 
ATOM      7  C   LIG    1       -0.719  -2.297  -0.005  0.00  0.00    +0.010 A 
ATOM      8  C   LIG    1       -1.024  -0.951   0.005  0.00  0.00    +0.020 A 
ATOM      9  C   LIG    1        0.002  -0.004   0.002  0.00  0.00    -0.080 A 
ENDROOT
BRANCH   3  10
ATOM     10  C   LIG    1        3.056   0.845   1.213  0.00  0.00    -0.060 A 
ATOM     11  C   LIG    1        2.483   0.793   2.470  0.00  0.00    +0.020 A 
ATOM     12  C   LIG    1        3.285   0.828   3.596  0.00  0.00    +0.000 A 
ATOM     13  C   LIG    1        4.658   0.913   3.465  0.00  0.00    +0.000 A 
ATOM     14  C   LIG    1        5.230   0.964   2.208  0.00  0.00    +0.000 A 
ATOM     15  C   LIG    1        4.429   0.925   1.082  0.00  0.00    +0.000 A 
ENDBRANCH   3  10
TORSDOF 1
ENDMDL
MODEL      273
REMARK  Name = ZINC000104282272
REMARK                            x       y       z     vdW  Elec       q    Type
REMARK                         _______ _______ _______ _____ _____    ______ ____
ROOT
ATOM      1  C   LIG    1       -0.018   1.493   0.010  0.00  0.00    -0.030 C 
ATOM      2  C   LIG    1        1.133   2.113   0.003  0.00  0.00    -0.030 C 
ATOM      3  C   LIG    1        2.399   1.283  -0.109  0.00  0.00    +0.140 C 
ATOM      4  C   LIG    1        3.573   2.163  -0.348  0.00  0.00    +0.010 C 
ATOM      5  C   LIG    1        3.723   0.741  -0.898  0.00  0.00    +0.100 C 
ATOM      6  C   LIG    1        2.609   0.391   1.162  0.00  0.00    +0.020 C 
ATOM      7  C   LIG    1        3.552  -0.774   0.869  0.00  0.00    -0.010 C 
ATOM      8  C   LIG    1        3.453  -1.634  -0.368  0.00  0.00    +0.000 C 
ATOM      9  C   LIG    1        3.197  -0.913  -1.721  0.00  0.00    +0.190 C 
ATOM     10  C   LIG    1        2.298   0.273  -1.205  0.00  0.00    -0.460 C 
ATOM     11  C   LIG    1        1.193  -0.618  -0.687  0.00  0.00    +0.050 C 
ATOM     12  C   LIG    1        0.002  -0.004   0.002  0.00  0.00    +0.030 C 
ENDROOT
TORSDOF 0
ENDMDL
MODEL      274
REMARK  Name = ZINC000001226853
REMARK                            x       y       z     vdW  Elec       q    Type
REMARK                         _______ _______ _______ _____ _____    ______ ____
ROOT
ATOM      1  C   LIG    1       -0.019   1.526   0.010  0.00  0.00    +0.050 C 
ATOM      2  C   LIG    1        0.002  -0.004   0.002  0.00  0.00    +0.060 C 
ATOM      3  C   LIG    1       -1.433  -0.537   0.019  0.00  0.00    +0.050 C 
ATOM      4  C   LIG    1       -2.178   0.012   1.233  0.00  0.00    +0.020 C 
ATOM      5  C   LIG    1       -1.652  -0.617   2.519  0.00  0.00    +0.050 C 
ATOM      6  C   LIG    1       -0.244  -0.095   2.819  0.00  0.00    +0.110 C 
ATOM      7  S   LIG    1        0.874  -0.609   1.477  0.00  0.00    -0.270 S 
ENDROOT
BRANCH   4   8
ATOM      8  C   LIG    1       -3.647  -0.296   1.095  0.00  0.00    -0.080 A 
ATOM      9  C   LIG    1       -4.072  -1.608   1.009  0.00  0.00    +0.010 A 
ATOM     10  C   LIG    1       -5.420  -1.891   0.882  0.00  0.00    +0.000 A 
ATOM     11  C   LIG    1       -6.341  -0.861   0.842  0.00  0.00    +0.000 A 
ATOM     12  C   LIG    1       -5.915   0.451   0.929  0.00  0.00    +0.000 A 
ATOM     13  C   LIG    1       -4.568   0.734   1.060  0.00  0.00    +0.000 A 
ENDBRANCH   4   8
TORSDOF 1
ENDMDL
MODEL      275
REMARK  Name = ZINC000001226855
REMARK                            x       y       z     vdW  Elec       q    Type
REMARK                         _______ _______ _______ _____ _____    ______ ____
ROOT
ATOM      1  C   LIG    1       -0.019   1.526   0.010  0.00  0.00    +0.070 C 
ATOM      2  C   LIG    1        0.002  -0.004   0.002  0.00  0.00    +0.040 C 
ATOM      3  C   LIG    1       -1.433  -0.537   0.019  0.00  0.00    +0.050 C 
ATOM      4  C   LIG    1       -1.424  -2.060  -0.060  0.00  0.00    +0.030 C 
ATOM      5  C   LIG    1       -0.907  -2.666   1.242  0.00  0.00    +0.050 C 
ATOM      6  C   LIG    1        0.595  -2.403   1.380  0.00  0.00    +0.110 C 
ATOM      7  S   LIG    1        0.874  -0.609   1.477  0.00  0.00    -0.270 S 
ENDROOT
BRANCH   4   8
ATOM      8  C   LIG    1       -2.826  -2.552  -0.312  0.00  0.00    -0.080 A 
ATOM      9  C   LIG    1       -3.833  -2.262   0.589  0.00  0.00    +0.010 A 
ATOM     10  C   LIG    1       -5.119  -2.714   0.357  0.00  0.00    +0.000 A 
ATOM     11  C   LIG    1       -5.398  -3.455  -0.776  0.00  0.00    +0.000 A 
ATOM     12  C   LIG    1       -4.391  -3.744  -1.678  0.00  0.00    +0.000 A 
ATOM     13  C   LIG    1       -3.106  -3.289  -1.448  0.00  0.00    +0.000 A 
ENDBRANCH   4   8
TORSDOF 1
ENDMDL
MODEL      276
REMARK  Name = ZINC000104282282
REMARK                            x       y       z     vdW  Elec       q    Type
REMARK                         _______ _______ _______ _____ _____    ______ ____
ROOT
ATOM      1  C   LIG    1       -0.018   1.488   0.010  0.00  0.00    -0.050 C 
ATOM      2  C   LIG    1        1.037   2.236   0.004  0.00  0.00    -0.040 C 
ATOM      3  C   LIG    1        2.434   1.686  -0.027  0.00  0.00    -0.040 C 
ATOM      4  C   LIG    1        2.973   1.518  -1.465  0.00  0.00    +0.020 C 
ATOM      5  C   LIG    1        3.669   0.248  -0.943  0.00  0.00    +0.010 C 
ATOM      6  C   LIG    1        3.396   2.503   0.829  0.00  0.00    +0.030 C 
ATOM      7  C   LIG    1        3.570   1.887   2.212  0.00  0.00    +0.000 C 
ATOM      8  C   LIG    1        4.075   0.451   2.053  0.00  0.00    +0.000 C 
ATOM      9  C   LIG    1        2.969  -0.391   1.429  0.00  0.00    +0.020 C 
ATOM     10  C   LIG    1        2.524   0.175   0.089  0.00  0.00    -0.060 C 
ATOM     11  C   LIG    1        1.319  -0.577  -0.475  0.00  0.00    +0.030 C 
ATOM     12  C   LIG    1        0.002  -0.004   0.002  0.00  0.00    +0.050 C 
ENDROOT
TORSDOF 0
ENDMDL
MODEL      277
REMARK  Name = ZINC000071785530
REMARK                            x       y       z     vdW  Elec       q    Type
REMARK                         _______ _______ _______ _____ _____    ______ ____
ROOT
ATOM      1  C   LIG    1       -0.018   1.496   0.010  0.00  0.00    -0.060 C 
ATOM      2  C   LIG    1        1.044   2.236   0.004  0.00  0.00    -0.050 C 
ATOM      3  C   LIG    1        2.444   1.697  -0.023  0.00  0.00    +0.030 C 
ATOM      4  C   LIG    1        2.448   0.221   0.383  0.00  0.00    +0.010 C 
ATOM      5  C   LIG    1        1.378  -0.510  -0.437  0.00  0.00    +0.010 C 
ATOM      6  C   LIG    1        0.002  -0.004   0.002  0.00  0.00    +0.050 C 
ENDROOT
BRANCH   3   7
ATOM      7  C   LIG    1        3.312   2.491   0.955  0.00  0.00    +0.030 C 
ATOM      8  C   LIG    1        3.317   3.937   0.555  0.00  0.00    -0.050 C 
ATOM      9  C   LIG    1        4.373   4.685   0.549  0.00  0.00    -0.060 C 
ATOM     10  C   LIG    1        5.743   4.208   0.932  0.00  0.00    +0.050 C 
ATOM     11  C   LIG    1        5.645   2.896   1.714  0.00  0.00    +0.010 C 
ATOM     12  C   LIG    1        4.738   1.937   0.933  0.00  0.00    +0.020 C 
ENDBRANCH   3   7
TORSDOF 1
ENDMDL
MODEL      278
REMARK  Name = ZINC000104282277
REMARK                            x       y       z     vdW  Elec       q    Type
REMARK                         _______ _______ _______ _____ _____    ______ ____
ROOT
ATOM      1  C   LIG    1       -0.018   1.499   0.010  0.00  0.00    -0.040 C 
ATOM      2  C   LIG    1        1.060   2.218   0.004  0.00  0.00    -0.020 C 
ATOM      3  C   LIG    1        2.451   1.638  -0.015  0.00  0.00    -0.030 C 
ATOM      4  C   LIG    1        3.038   1.522   1.405  0.00  0.00    +0.020 C 
ATOM      5  C   LIG    1        2.356   0.144   1.467  0.00  0.00    +0.010 C 
ATOM      6  C   LIG    1        3.361   2.383  -0.980  0.00  0.00    +0.020 C 
ATOM      7  C   LIG    1        4.702   1.678  -1.146  0.00  0.00    +0.000 C 
ATOM      8  C   LIG    1        4.451   0.250  -1.637  0.00  0.00    +0.000 C 
ATOM      9  C   LIG    1        3.779  -0.540  -0.520  0.00  0.00    +0.030 C 
ATOM     10  C   LIG    1        2.484   0.118  -0.070  0.00  0.00    -0.060 C 
ATOM     11  C   LIG    1        1.249  -0.490  -0.744  0.00  0.00    +0.030 C 
ATOM     12  C   LIG    1        0.002  -0.004   0.002  0.00  0.00    +0.050 C 
ENDROOT
TORSDOF 0
ENDMDL
MODEL      279
REMARK  Name = ZINC000003198815
REMARK                            x       y       z     vdW  Elec       q    Type
REMARK                         _______ _______ _______ _____ _____    ______ ____
ROOT
ATOM      1  C   LIG    1       -0.018   1.470   0.010  0.00  0.00    +0.010 C 
ATOM      2  C   LIG    1        1.209   1.962   0.001  0.00  0.00    +0.010 C 
ATOM      3  C   LIG    1        2.182   0.807  -0.014  0.00  0.00    +0.110 C 
ATOM      4  C   LIG    1        1.329  -0.438  -0.013  0.00  0.00    -0.090 A 
ATOM      5  C   LIG    1        1.624  -1.781  -0.023  0.00  0.00    +0.030 A 
ATOM      6  C   LIG    1        0.600  -2.714  -0.019  0.00  0.00    +0.010 A 
ATOM      7  C   LIG    1       -0.719  -2.297  -0.005  0.00  0.00    +0.010 A 
ATOM      8  C   LIG    1       -1.024  -0.951   0.005  0.00  0.00    +0.020 A 
ATOM      9  C   LIG    1        0.002  -0.004   0.002  0.00  0.00    -0.080 A 
ENDROOT
BRANCH   3  10
ATOM     10  C   LIG    1        3.032   0.858  -1.258  0.00  0.00    -0.060 A 
ATOM     11  C   LIG    1        2.435   0.831  -2.505  0.00  0.00    +0.020 A 
ATOM     12  C   LIG    1        3.215   0.878  -3.645  0.00  0.00    +0.000 A 
ATOM     13  C   LIG    1        4.591   0.952  -3.539  0.00  0.00    +0.000 A 
ATOM     14  C   LIG    1        5.188   0.979  -2.293  0.00  0.00    +0.000 A 
ATOM     15  C   LIG    1        4.408   0.937  -1.152  0.00  0.00    +0.000 A 
ENDBRANCH   3  10
TORSDOF 1
ENDMDL
MODEL      280
REMARK  Name = ZINC000071785528
REMARK                            x       y       z     vdW  Elec       q    Type
REMARK                         _______ _______ _______ _____ _____    ______ ____
ROOT
ATOM      1  C   LIG    1       -0.018   1.496   0.010  0.00  0.00    -0.060 C 
ATOM      2  C   LIG    1        1.044   2.236   0.004  0.00  0.00    -0.050 C 
ATOM      3  C   LIG    1        2.444   1.697  -0.002  0.00  0.00    +0.030 C 
ATOM      4  C   LIG    1        2.440   0.226  -0.423  0.00  0.00    +0.010 C 
ATOM      5  C   LIG    1        1.386  -0.515   0.409  0.00  0.00    +0.010 C 
ATOM      6  C   LIG    1        0.002  -0.004   0.002  0.00  0.00    +0.050 C 
ENDROOT
BRANCH   3   7
ATOM      7  C   LIG    1        3.293   2.501  -0.989  0.00  0.00    +0.030 C 
ATOM      8  C   LIG    1        3.306   3.943  -0.573  0.00  0.00    -0.050 C 
ATOM      9  C   LIG    1        4.362   4.691  -0.581  0.00  0.00    -0.060 C 
ATOM     10  C   LIG    1        5.724   4.218  -0.997  0.00  0.00    +0.050 C 
ATOM     11  C   LIG    1        5.610   2.914  -1.790  0.00  0.00    +0.010 C 
ATOM     12  C   LIG    1        4.719   1.947  -1.000  0.00  0.00    +0.020 C 
ENDBRANCH   3   7
TORSDOF 1
ENDMDL
MODEL      281
REMARK  Name = ZINC000057988186
REMARK                            x       y       z     vdW  Elec       q    Type
REMARK                         _______ _______ _______ _____ _____    ______ ____
ROOT
ATOM      1  C   LIG    1       -0.018   1.502   0.010  0.00  0.00    -0.060 C 
ATOM      2  C   LIG    1        1.103   2.178   0.003  0.00  0.00    -0.060 C 
ATOM      3  C   LIG    1        2.425   1.457  -0.011  0.00  0.00    +0.040 C 
ATOM      4  C   LIG    1        2.662   0.845  -1.393  0.00  0.00    +0.010 C 
ATOM      5  C   LIG    1        3.499  -0.428  -1.250  0.00  0.00    +0.000 C 
ATOM      6  C   LIG    1        2.590  -1.595  -0.859  0.00  0.00    +0.010 C 
ATOM      7  C   LIG    1        2.584  -1.750   0.664  0.00  0.00    +0.000 C 
ATOM      8  C   LIG    1        1.144  -1.903   1.156  0.00  0.00    +0.000 C 
ATOM      9  C   LIG    1        0.519  -0.519   1.347  0.00  0.00    +0.010 C 
ATOM     10  C   LIG    1        0.002  -0.004   0.002  0.00  0.00    +0.040 C 
ENDROOT
TORSDOF 0
ENDMDL
MODEL      282
REMARK  Name = ZINC000003075454
REMARK                            x       y       z     vdW  Elec       q    Type
REMARK                         _______ _______ _______ _____ _____    ______ ____
ROOT
ATOM      1  C   LIG    1        3.711  -0.707  -0.037  0.00  0.00    +0.070 C 
ATOM      2  C   LIG    1        3.870  -1.494   1.246  0.00  0.00    -0.050 C 
ATOM      3  C   LIG    1        2.902  -2.237   1.682  0.00  0.00    -0.030 C 
ATOM      4  C   LIG    1        1.601  -2.327   0.914  0.00  0.00    +0.040 C 
ATOM      5  C   LIG    1        1.841  -3.140  -0.360  0.00  0.00    +0.010 C 
ATOM      6  C   LIG    1        2.355  -2.249  -1.477  0.00  0.00    -0.000 C 
ATOM      7  C   LIG    1        3.740  -1.680  -1.218  0.00  0.00    +0.030 C 
ENDROOT
BRANCH   1  11
ATOM      8  C   LIG    1       -0.017   1.377   0.011  0.00  0.00    +0.000 A 
ATOM      9  C   LIG    1        0.576   1.049  -1.194  0.00  0.00    +0.000 A 
ATOM     10  C   LIG    1        1.782   0.374  -1.209  0.00  0.00    +0.010 A 
ATOM     11  C   LIG    1        2.396   0.029  -0.020  0.00  0.00    -0.070 A 
ATOM     12  C   LIG    1        1.804   0.358   1.185  0.00  0.00    +0.020 A 
ATOM     13  C   LIG    1        0.596   1.030   1.200  0.00  0.00    -0.010 A 
ENDBRANCH   1  11
TORSDOF 1
ENDMDL
MODEL      283
REMARK  Name = ZINC000001036792
REMARK                            x       y       z     vdW  Elec       q    Type
REMARK                         _______ _______ _______ _____ _____    ______ ____
ROOT
ATOM      1  C   LIG    1       -0.018   1.467   0.010  0.00  0.00    +0.010 A 
ATOM      2  C   LIG    1        1.114   2.139   0.003  0.00  0.00    +0.020 A 
ATOM      3  C   LIG    1        2.395   1.415  -0.009  0.00  0.00    +0.030 A 
ATOM      4  C   LIG    1        2.414   0.095  -0.012  0.00  0.00    +0.100 A 
ATOM      5  N   LIG    1        3.642  -0.558  -0.003  0.00  0.00    -0.600 N 
ATOM      6  H   LIG    1        3.746  -1.144  -0.818  0.00  0.00    +0.360 HD
ATOM      7  C   LIG    1        3.859  -1.284   1.164  0.00  0.00    +0.100 A 
ATOM      8  C   LIG    1        4.839  -0.917   1.969  0.00  0.00    +0.030 A 
ATOM      9  C   LIG    1        5.089  -1.657   3.217  0.00  0.00    +0.020 A 
ATOM     10  C   LIG    1        4.332  -2.686   3.532  0.00  0.00    +0.010 A 
ATOM     11  C   LIG    1        3.242  -3.097   2.634  0.00  0.00    +0.030 A 
ATOM     12  C   LIG    1        3.019  -2.438   1.511  0.00  0.00    -0.080 A 
ATOM     13  C   LIG    1        1.940  -2.887   0.628  0.00  0.00    +0.020 C 
ATOM     14  C   LIG    1        1.136  -2.120  -0.028  0.00  0.00    +0.020 C 
ATOM     15  C   LIG    1        1.151  -0.654  -0.011  0.00  0.00    -0.080 A 
ATOM     16  C   LIG    1        0.002  -0.004   0.002  0.00  0.00    +0.030 A 
ENDROOT
TORSDOF 0
ENDMDL
MODEL      284
REMARK  Name = ZINC000001847609
REMARK                            x       y       z     vdW  Elec       q    Type
REMARK                         _______ _______ _______ _____ _____    ______ ____
ROOT
ATOM      1  C   LIG    1       -0.017   1.374   0.010  0.00  0.00    +0.000 A 
ATOM      2  C   LIG    1        1.165   2.093   0.002  0.00  0.00    +0.010 A 
ATOM      3  C   LIG    1        2.381   1.428  -0.003  0.00  0.00    +0.000 A 
ATOM      4  C   LIG    1        2.409   0.056   0.000  0.00  0.00    -0.070 A 
ATOM      5  C   LIG    1        3.727  -0.694   0.049  0.00  0.00    +0.130 C 
ATOM      6  C   LIG    1        3.918  -1.339  -1.311  0.00  0.00    -0.070 A 
ATOM      7  C   LIG    1        4.862  -0.865  -2.188  0.00  0.00    +0.000 A 
ATOM      8  C   LIG    1        5.034  -1.481  -3.417  0.00  0.00    +0.010 A 
ATOM      9  C   LIG    1        4.256  -2.573  -3.758  0.00  0.00    +0.000 A 
ATOM     10  C   LIG    1        3.300  -3.051  -2.888  0.00  0.00    +0.020 A 
ATOM     11  C   LIG    1        3.109  -2.429  -1.647  0.00  0.00    -0.060 A 
ATOM     12  C   LIG    1        2.056  -2.904  -0.749  0.00  0.00    +0.020 C 
ATOM     13  C   LIG    1        1.242  -2.150  -0.041  0.00  0.00    +0.020 C 
ATOM     14  C   LIG    1        1.224  -0.688  -0.011  0.00  0.00    -0.060 A 
ATOM     15  C   LIG    1        0.002  -0.004   0.002  0.00  0.00    +0.020 A 
ENDROOT
TORSDOF 0
ENDMDL
MODEL      285
REMARK  Name = ZINC000003051878
REMARK                            x       y       z     vdW  Elec       q    Type
REMARK                         _______ _______ _______ _____ _____    ______ ____
ROOT
ATOM      1  C   LIG    1       -0.018   1.468   0.010  0.00  0.00    +0.010 A 
ATOM      2  C   LIG    1        1.109   2.147   0.003  0.00  0.00    +0.030 A 
ATOM      3  C   LIG    1        2.396   1.427  -0.015  0.00  0.00    +0.010 A 
ATOM      4  C   LIG    1        2.410   0.116  -0.024  0.00  0.00    +0.090 A 
ATOM      5  O   LIG    1        3.598  -0.569  -0.049  0.00  0.00    -0.270 OA
ATOM      6  C   LIG    1        3.847  -1.214  -1.233  0.00  0.00    +0.090 A 
ATOM      7  C   LIG    1        4.795  -0.790  -2.035  0.00  0.00    +0.010 A 
ATOM      8  C   LIG    1        5.048  -1.494  -3.305  0.00  0.00    +0.030 A 
ATOM      9  C   LIG    1        4.321  -2.542  -3.628  0.00  0.00    +0.010 A 
ATOM     10  C   LIG    1        3.258  -3.013  -2.726  0.00  0.00    +0.040 A 
ATOM     11  C   LIG    1        3.028  -2.386  -1.587  0.00  0.00    -0.080 A 
ATOM     12  C   LIG    1        1.970  -2.863  -0.695  0.00  0.00    +0.030 C 
ATOM     13  C   LIG    1        1.162  -2.116  -0.017  0.00  0.00    +0.030 C 
ATOM     14  C   LIG    1        1.151  -0.652  -0.013  0.00  0.00    -0.080 A 
ATOM     15  C   LIG    1        0.002  -0.004   0.002  0.00  0.00    +0.040 A 
ENDROOT
TORSDOF 0
ENDMDL
MODEL      286
REMARK  Name = ZINC000071785529
REMARK                            x       y       z     vdW  Elec       q    Type
REMARK                         _______ _______ _______ _____ _____    ______ ____
ROOT
ATOM      1  C   LIG    1       -0.018   1.496   0.010  0.00  0.00    -0.060 C 
ATOM      2  C   LIG    1        1.044   2.236   0.004  0.00  0.00    -0.050 C 
ATOM      3  C   LIG    1        2.444   1.697  -0.023  0.00  0.00    +0.030 C 
ATOM      4  C   LIG    1        2.448   0.221   0.383  0.00  0.00    +0.010 C 
ATOM      5  C   LIG    1        1.378  -0.510  -0.437  0.00  0.00    +0.000 C 
ATOM      6  C   LIG    1        0.002  -0.004   0.002  0.00  0.00    +0.050 C 
ENDROOT
BRANCH   3   7
ATOM      7  C   LIG    1        3.312   2.491   0.955  0.00  0.00    +0.030 C 
ATOM      8  C   LIG    1        4.711   1.947   0.933  0.00  0.00    -0.050 C 
ATOM      9  C   LIG    1        5.775   2.684   0.930  0.00  0.00    -0.060 C 
ATOM     10  C   LIG    1        5.760   4.184   0.938  0.00  0.00    +0.050 C 
ATOM     11  C   LIG    1        4.384   4.695   1.372  0.00  0.00    +0.010 C 
ATOM     12  C   LIG    1        3.317   3.966   0.547  0.00  0.00    +0.020 C 
ENDBRANCH   3   7
TORSDOF 1
ENDMDL
MODEL      287
REMARK  Name = ZINC000008764139
REMARK                            x       y       z     vdW  Elec       q    Type
REMARK                         _______ _______ _______ _____ _____    ______ ____
ROOT
ATOM      1  F   LIG    1        0.002  -0.004   0.002  0.00  0.00    -0.140 F 
ATOM      2  C   LIG    1       -0.016   1.347   0.009  0.00  0.00    +0.100 A 
ATOM      3  C   LIG    1       -1.227   2.021   0.030  0.00  0.00    -0.010 A 
ATOM      4  C   LIG    1       -1.251   3.400   0.038  0.00  0.00    +0.050 A 
ATOM      5  C   LIG    1       -0.054   4.117   0.025  0.00  0.00    -0.030 A 
ATOM      6  C   LIG    1        1.163   3.433   0.004  0.00  0.00    +0.070 A 
ATOM      7  C   LIG    1        1.176   2.053   0.002  0.00  0.00    -0.010 A 
ENDROOT
BRANCH   5   8
ATOM      8  C   LIG    1       -0.074   5.595   0.033  0.00  0.00    -0.150 A 
ATOM      9  C   LIG    1        1.016   6.388   0.017  0.00  0.00    +0.010 A 
ATOM     10  C   LIG    1        0.744   7.741   0.029  0.00  0.00    +0.010 A 
ATOM     11  C   LIG    1       -0.553   8.057   0.055  0.00  0.00    -0.040 A 
ATOM     12  S   LIG    1       -1.523   6.591   0.059  0.00  0.00    +0.120 S 
ENDBRANCH   5   8
TORSDOF 1
ENDMDL
MODEL      288
REMARK  Name = ZINC000002563754
REMARK                            x       y       z     vdW  Elec       q    Type
REMARK                         _______ _______ _______ _____ _____    ______ ____
ROOT
ATOM      1  F   LIG    1        0.002  -0.004   0.002  0.00  0.00    -0.130 F 
ATOM      2  C   LIG    1       -0.016   1.347   0.009  0.00  0.00    +0.140 A 
ATOM      3  C   LIG    1       -1.227   2.020   0.030  0.00  0.00    -0.010 A 
ATOM      4  C   LIG    1       -1.253   3.400   0.038  0.00  0.00    +0.100 A 
ATOM      5  C   LIG    1       -0.057   4.118   0.025  0.00  0.00    -0.060 A 
ATOM      6  C   LIG    1        1.162   3.434   0.004  0.00  0.00    +0.150 A 
ATOM      7  F   LIG    1        2.325   4.123  -0.008  0.00  0.00    -0.120 F 
ATOM      8  C   LIG    1        1.176   2.053   0.002  0.00  0.00    -0.040 A 
ENDROOT
BRANCH   5   9
ATOM      9  C   LIG    1       -0.079   5.596   0.034  0.00  0.00    -0.160 A 
ATOM     10  C   LIG    1        0.633   6.380   0.868  0.00  0.00    +0.030 A 
ATOM     11  C   LIG    1        0.447   7.735   0.684  0.00  0.00    +0.020 A 
ATOM     12  C   LIG    1       -0.407   8.063  -0.289  0.00  0.00    -0.040 A 
ATOM     13  S   LIG    1       -1.032   6.604  -1.048  0.00  0.00    +0.130 S 
ENDBRANCH   5   9
TORSDOF 1
ENDMDL
MODEL      289
REMARK  Name = ZINC000000480735
REMARK                            x       y       z     vdW  Elec       q    Type
REMARK                         _______ _______ _______ _____ _____    ______ ____
ROOT
ATOM      1  F   LIG    1        0.002  -0.004   0.002  0.00  0.00    -0.100 F 
ATOM      2  C   LIG    1       -0.016   1.347   0.009  0.00  0.00    -0.010 A 
ATOM      3  C   LIG    1       -1.121   2.102   0.030  0.00  0.00    +0.000 A 
ATOM      4  C   LIG    1       -0.897   3.464   0.034  0.00  0.00    +0.040 A 
ATOM      5  C   LIG    1        0.402   3.821   0.016  0.00  0.00    -0.140 A 
ATOM      6  S   LIG    1        1.408   2.378   0.001  0.00  0.00    +0.150 S 
ENDROOT
BRANCH   5   7
ATOM      7  C   LIG    1        0.905   5.211   0.016  0.00  0.00    -0.020 A 
ATOM      8  C   LIG    1        0.008   6.280   0.041  0.00  0.00    +0.030 A 
ATOM      9  C   LIG    1        0.484   7.575   0.041  0.00  0.00    +0.020 A 
ATOM     10  C   LIG    1        1.846   7.815   0.016  0.00  0.00    +0.020 A 
ATOM     11  C   LIG    1        2.740   6.760  -0.009  0.00  0.00    +0.020 A 
ATOM     12  C   LIG    1        2.278   5.460  -0.003  0.00  0.00    +0.010 A 
ENDBRANCH   5   7
TORSDOF 1
ENDMDL
MODEL      290
REMARK  Name = ZINC000002584348
REMARK                            x       y       z     vdW  Elec       q    Type
REMARK                         _______ _______ _______ _____ _____    ______ ____
ROOT
ATOM      1  F   LIG    1        0.002  -0.004   0.002  0.00  0.00    -0.130 F 
ATOM      2  C   LIG    1       -0.016   1.347   0.009  0.00  0.00    +0.130 A 
ATOM      3  C   LIG    1       -1.227   2.021   0.030  0.00  0.00    -0.010 A 
ATOM      4  C   LIG    1       -1.252   3.401   0.038  0.00  0.00    +0.100 A 
ATOM      5  C   LIG    1       -0.057   4.117   0.025  0.00  0.00    -0.090 A 
ATOM      6  C   LIG    1        1.161   3.435   0.004  0.00  0.00    +0.140 A 
ATOM      7  F   LIG    1        2.323   4.125  -0.009  0.00  0.00    -0.120 F 
ATOM      8  C   LIG    1        1.175   2.053   0.002  0.00  0.00    -0.040 A 
ENDROOT
BRANCH   5   9
ATOM      9  C   LIG    1       -0.079   5.601   0.033  0.00  0.00    -0.060 A 
ATOM     10  C   LIG    1       -0.882   6.293  -0.871  0.00  0.00    +0.030 A 
ATOM     11  C   LIG    1       -0.899   7.673  -0.858  0.00  0.00    +0.010 A 
ATOM     12  C   LIG    1       -0.121   8.369   0.050  0.00  0.00    +0.020 A 
ATOM     13  C   LIG    1        0.678   7.686   0.949  0.00  0.00    +0.010 A 
ATOM     14  C   LIG    1        0.699   6.306   0.950  0.00  0.00    +0.020 A 
ENDBRANCH   5   9
TORSDOF 1
ENDMDL
MODEL      291
REMARK  Name = ZINC000000404361
REMARK                            x       y       z     vdW  Elec       q    Type
REMARK                         _______ _______ _______ _____ _____    ______ ____
ROOT
ATOM      1  F   LIG    1        0.002  -0.004   0.002  0.00  0.00    -0.140 F 
ATOM      2  C   LIG    1       -0.016   1.347   0.009  0.00  0.00    +0.100 A 
ATOM      3  C   LIG    1       -1.226   2.021   0.030  0.00  0.00    -0.010 A 
ATOM      4  C   LIG    1       -1.250   3.401   0.038  0.00  0.00    +0.060 A 
ATOM      5  C   LIG    1       -0.054   4.116   0.026  0.00  0.00    -0.060 A 
ATOM      6  C   LIG    1        1.161   3.433   0.004  0.00  0.00    +0.060 A 
ATOM      7  C   LIG    1        1.175   2.054   0.002  0.00  0.00    -0.010 A 
ENDROOT
BRANCH   5   8
ATOM      8  C   LIG    1       -0.074   5.599   0.035  0.00  0.00    -0.060 A 
ATOM      9  C   LIG    1       -1.289   6.282   0.062  0.00  0.00    +0.060 A 
ATOM     10  C   LIG    1       -1.303   7.661   0.071  0.00  0.00    -0.010 A 
ATOM     11  C   LIG    1       -0.112   8.368   0.052  0.00  0.00    +0.100 A 
ATOM     12  C   LIG    1        1.099   7.694   0.025  0.00  0.00    -0.010 A 
ATOM     13  F   LIG    1       -0.130   9.719   0.061  0.00  0.00    -0.140 F 
ATOM     14  C   LIG    1        1.122   6.314   0.022  0.00  0.00    +0.060 A 
ENDBRANCH   5   8
TORSDOF 1
ENDMDL
MODEL      292
REMARK  Name = ZINC000066323208
REMARK                            x       y       z     vdW  Elec       q    Type
REMARK                         _______ _______ _______ _____ _____    ______ ____
ROOT
ATOM      1  F   LIG    1        0.002  -0.004   0.002  0.00  0.00    -0.110 F 
ATOM      2  C   LIG    1       -0.016   1.347   0.009  0.00  0.00    +0.100 A 
ATOM      3  C   LIG    1       -1.224   2.022   0.030  0.00  0.00    +0.070 A 
ATOM      4  C   LIG    1       -1.243   3.405   0.037  0.00  0.00    +0.040 A 
ATOM      5  C   LIG    1       -0.054   4.114   0.024  0.00  0.00    +0.140 A 
ATOM      6  C   LIG    1        1.155   3.439   0.004  0.00  0.00    -0.180 A 
ATOM      7  F   LIG    1       -0.073   5.464   0.031  0.00  0.00    -0.110 F 
ATOM      8  C   LIG    1        1.174   2.056   0.002  0.00  0.00    -0.030 A 
ATOM      9 CL   LIG    1        2.689   1.209  -0.023  0.00  0.00    -0.010 Cl
ENDROOT
BRANCH   6  10
ATOM     10  C   LIG    1        2.449   4.211  -0.010  0.00  0.00    +0.450 C 
ATOM     11  F   LIG    1        2.255   5.434  -0.661  0.00  0.00    -0.190 F 
ATOM     12  F   LIG    1        3.425   3.472  -0.687  0.00  0.00    -0.180 F 
ENDBRANCH   6  10
TORSDOF 1
ENDMDL
MODEL      293
REMARK  Name = ZINC000000500952
REMARK                            x       y       z     vdW  Elec       q    Type
REMARK                         _______ _______ _______ _____ _____    ______ ____
ROOT
ATOM      1  C   LIG    1       -0.017   1.376   0.010  0.00  0.00    +0.010 A 
ATOM      2  C   LIG    1        1.168   2.090   0.002  0.00  0.00    +0.060 A 
ATOM      3  C   LIG    1        2.383   1.426  -0.025  0.00  0.00    +0.010 A 
ATOM      4  C   LIG    1        2.418   0.043  -0.046  0.00  0.00    +0.120 A 
ATOM      5  O   LIG    1        3.608  -0.602  -0.136  0.00  0.00    -0.270 OA
ATOM      6  C   LIG    1        3.830  -1.370  -1.234  0.00  0.00    +0.070 A 
ATOM      7  C   LIG    1        4.868  -1.037  -2.088  0.00  0.00    +0.020 A 
ATOM      8  C   LIG    1        5.098  -1.783  -3.231  0.00  0.00    +0.040 A 
ATOM      9  C   LIG    1        4.291  -2.864  -3.528  0.00  0.00    +0.030 A 
ATOM     10  C   LIG    1        3.260  -3.215  -2.679  0.00  0.00    +0.060 A 
ATOM     11  C   LIG    1        3.028  -2.478  -1.514  0.00  0.00    +0.060 A 
ATOM     12  N   LIG    1        2.051  -2.890  -0.658  0.00  0.00    -0.490 NA
ATOM     13  C   LIG    1        1.242  -2.151   0.001  0.00  0.00    +0.400 C 
ATOM     14  C   LIG    1        1.222  -0.685  -0.016  0.00  0.00    -0.160 A 
ATOM     15  C   LIG    1        0.002  -0.004   0.002  0.00  0.00    +0.070 A 
ENDROOT
TORSDOF 0
ENDMDL
MODEL      294
REMARK  Name = ZINC000019942472
REMARK                            x       y       z     vdW  Elec       q    Type
REMARK                         _______ _______ _______ _____ _____    ______ ____
ROOT
ATOM      1  N   LIG    1       -0.073   5.512   0.034  0.00  0.00    -0.740 N 
ATOM      2  H   LIG    1       -0.919   5.986   0.049  0.00  0.00    +0.400 HD
ENDROOT
BRANCH   1   7
ATOM      3  F   LIG    1        0.002  -0.004   0.002  0.00  0.00    -0.150 F 
ATOM      4  C   LIG    1       -0.016   1.347   0.009  0.00  0.00    +0.030 A 
ATOM      5  C   LIG    1       -1.225   2.022   0.030  0.00  0.00    +0.030 A 
ATOM      6  C   LIG    1       -1.246   3.403   0.038  0.00  0.00    -0.040 A 
ATOM      7  C   LIG    1       -0.054   4.114   0.026  0.00  0.00    +0.210 A 
ATOM      8  C   LIG    1        1.157   3.435   0.005  0.00  0.00    -0.040 A 
ATOM      9  C   LIG    1        1.174   2.054   0.002  0.00  0.00    +0.030 A 
ENDBRANCH   1   7
BRANCH   1  10
ATOM     10  C   LIG    1        1.186   6.262   0.021  0.00  0.00    +0.230 C 
ATOM     11  C   LIG    1        1.668   6.424  -1.423  0.00  0.00    +0.000 C 
ATOM     12  C   LIG    1        2.982   7.207  -1.437  0.00  0.00    +0.010 C 
ATOM     13  C   LIG    1        2.760   8.587  -0.816  0.00  0.00    +0.000 C 
ATOM     14  C   LIG    1        2.278   8.426   0.627  0.00  0.00    +0.020 C 
ATOM     15  C   LIG    1        0.964   7.643   0.642  0.00  0.00    +0.010 C 
ENDBRANCH   1  10
TORSDOF 2
ENDMDL
MODEL      295
REMARK  Name = ZINC000086485938
REMARK                            x       y       z     vdW  Elec       q    Type
REMARK                         _______ _______ _______ _____ _____    ______ ____
ROOT
ATOM      1  F   LIG    1        0.002  -0.004   0.002  0.00  0.00    -0.130 F 
ATOM      2  C   LIG    1       -0.016   1.347   0.009  0.00  0.00    +0.120 A 
ATOM      3  C   LIG    1       -1.242   2.038   0.031  0.00  0.00    -0.070 A 
ATOM      4  C   LIG    1       -2.467   1.350   0.045  0.00  0.00    +0.040 A 
ATOM      5  C   LIG    1       -3.633   2.051   0.066  0.00  0.00    +0.020 A 
ATOM      6  C   LIG    1       -3.632   3.445   0.073  0.00  0.00    +0.030 A 
ATOM      7  C   LIG    1       -2.464   4.145   0.059  0.00  0.00    +0.030 A 
ATOM      8  C   LIG    1       -1.240   3.455   0.038  0.00  0.00    -0.020 A 
ATOM      9  C   LIG    1       -0.014   4.143   0.024  0.00  0.00    -0.040 A 
ATOM     10  C   LIG    1        1.153   3.441   0.004  0.00  0.00    +0.070 A 
ATOM     11 CL   LIG    1        0.012   5.879   0.032  0.00  0.00    -0.050 Cl
ATOM     12  C   LIG    1        1.153   2.048   0.002  0.00  0.00    +0.000 A 
ENDROOT
TORSDOF 0
ENDMDL
MODEL      296
REMARK  Name = ZINC000066323203
REMARK                            x       y       z     vdW  Elec       q    Type
REMARK                         _______ _______ _______ _____ _____    ______ ____
ROOT
ATOM      1  F   LIG    1        0.002  -0.004   0.002  0.00  0.00    -0.110 F 
ATOM      2  C   LIG    1       -0.016   1.347   0.009  0.00  0.00    +0.170 A 
ATOM      3  C   LIG    1       -1.224   2.023   0.030  0.00  0.00    +0.010 A 
ATOM      4  C   LIG    1       -1.244   3.405   0.038  0.00  0.00    +0.130 A 
ATOM      5  C   LIG    1       -0.057   4.114   0.025  0.00  0.00    -0.090 A 
ATOM      6  C   LIG    1        1.153   3.439   0.004  0.00  0.00    +0.180 A 
ATOM      7  F   LIG    1        2.313   4.131  -0.008  0.00  0.00    -0.100 F 
ATOM      8 CL   LIG    1       -0.083   5.850   0.035  0.00  0.00    -0.030 Cl
ATOM      9  C   LIG    1        1.173   2.055   0.002  0.00  0.00    -0.240 A 
ENDROOT
BRANCH   9  10
ATOM     10  C   LIG    1        2.489   1.320  -0.021  0.00  0.00    +0.450 C 
ATOM     11  F   LIG    1        3.442   2.091  -0.695  0.00  0.00    -0.190 F 
ATOM     12  F   LIG    1        2.327   0.097  -0.680  0.00  0.00    -0.190 F 
ENDBRANCH   9  10
TORSDOF 1
ENDMDL
MODEL      297
REMARK  Name = ZINC000111340357
REMARK                            x       y       z     vdW  Elec       q    Type
REMARK                         _______ _______ _______ _____ _____    ______ ____
ROOT
ATOM      1  F   LIG    1        0.002  -0.004   0.002  0.00  0.00    -0.110 F 
ATOM      2  C   LIG    1       -0.016   1.347   0.009  0.00  0.00    +0.130 A 
ATOM      3  C   LIG    1       -1.224   2.023   0.030  0.00  0.00    +0.040 A 
ATOM      4  C   LIG    1       -1.243   3.405   0.038  0.00  0.00    +0.100 A 
ATOM      5  C   LIG    1       -0.056   4.114   0.025  0.00  0.00    -0.040 A 
ATOM      6  C   LIG    1        1.154   3.440   0.005  0.00  0.00    +0.000 A 
ATOM      7 CL   LIG    1        2.644   4.330  -0.011  0.00  0.00    -0.010 Cl
ATOM      8 CL   LIG    1       -0.081   5.850   0.035  0.00  0.00    -0.020 Cl
ATOM      9  C   LIG    1        1.174   2.056   0.002  0.00  0.00    -0.070 A 
ATOM     10 CL   LIG    1        2.689   1.210  -0.024  0.00  0.00    -0.010 Cl
ENDROOT
TORSDOF 0
ENDMDL
MODEL      298
REMARK  Name = ZINC000002244271
REMARK                            x       y       z     vdW  Elec       q    Type
REMARK                         _______ _______ _______ _____ _____    ______ ____
ROOT
ATOM      1  N   LIG    1       -0.073   5.513   0.033  0.00  0.00    -0.690 N 
ATOM      2  H   LIG    1       -0.919   5.986   0.015  0.00  0.00    +0.410 HD
ENDROOT
BRANCH   1   7
ATOM      3  F   LIG    1        0.016   0.002  -0.226  0.00  0.00    -0.140 F 
ATOM      4  C   LIG    1       -0.006   1.351  -0.162  0.00  0.00    +0.060 A 
ATOM      5  C   LIG    1        1.044   2.033   0.431  0.00  0.00    +0.020 A 
ATOM      6  C   LIG    1        1.023   3.412   0.498  0.00  0.00    +0.000 A 
ATOM      7  C   LIG    1       -0.050   4.116  -0.032  0.00  0.00    +0.180 A 
ATOM      8  C   LIG    1       -1.101   3.431  -0.628  0.00  0.00    -0.010 A 
ATOM      9  C   LIG    1       -1.075   2.051  -0.696  0.00  0.00    +0.020 A 
ENDBRANCH   1   7
BRANCH   1  10
ATOM     10  C   LIG    1        1.124   6.227   0.126  0.00  0.00    +0.170 A 
ATOM     11  C   LIG    1        2.272   5.744  -0.490  0.00  0.00    -0.030 A 
ATOM     12  C   LIG    1        3.454   6.453  -0.396  0.00  0.00    +0.040 A 
ATOM     13  C   LIG    1        3.495   7.642   0.309  0.00  0.00    -0.030 A 
ATOM     14  C   LIG    1        2.354   8.125   0.923  0.00  0.00    +0.040 A 
ATOM     15  C   LIG    1        1.168   7.425   0.829  0.00  0.00    -0.040 A 
ENDBRANCH   1  10
TORSDOF 2
ENDMDL
MODEL      299
REMARK  Name = ZINC000001682864
REMARK                            x       y       z     vdW  Elec       q    Type
REMARK                         _______ _______ _______ _____ _____    ______ ____
ROOT
ATOM      1  F   LIG    1       -0.165   0.128   1.226  0.00  0.00    -0.140 F 
ATOM      2  C   LIG    1       -0.142   1.446   0.931  0.00  0.00    +0.070 A 
ATOM      3  C   LIG    1       -1.305   2.088   0.543  0.00  0.00    +0.040 A 
ATOM      4  C   LIG    1       -1.284   3.436   0.241  0.00  0.00    +0.020 A 
ATOM      5  C   LIG    1       -0.095   4.146   0.329  0.00  0.00    +0.110 A 
ATOM      6  C   LIG    1        1.070   3.502   0.719  0.00  0.00    -0.030 A 
ATOM      7  C   LIG    1        1.044   2.155   1.024  0.00  0.00    +0.030 A 
ENDROOT
BRANCH   5   8
ATOM      8  O   LIG    1       -0.072   5.473   0.033  0.00  0.00    -0.260 OA
BRANCH   8   9
ATOM      9  C   LIG    1        1.116   6.127   0.124  0.00  0.00    +0.080 A 
ATOM     10  C   LIG    1        1.954   6.201  -0.978  0.00  0.00    +0.010 A 
ATOM     11  C   LIG    1        3.161   6.867  -0.883  0.00  0.00    +0.020 A 
ATOM     12  C   LIG    1        3.534   7.458   0.310  0.00  0.00    +0.020 A 
ATOM     13  C   LIG    1        2.700   7.384   1.411  0.00  0.00    +0.020 A 
ATOM     14  C   LIG    1        1.489   6.726   1.319  0.00  0.00    +0.010 A 
ENDBRANCH   8   9
ENDBRANCH   5   8
TORSDOF 2
ENDMDL
MODEL      300
REMARK  Name = ZINC000004798629
REMARK                            x       y       z     vdW  Elec       q    Type
REMARK                         _______ _______ _______ _____ _____    ______ ____
ROOT
ATOM      1  F   LIG    1        0.002  -0.004   0.002  0.00  0.00    -0.130 F 
ATOM      2  C   LIG    1       -0.016   1.347   0.009  0.00  0.00    +0.140 A 
ATOM      3  C   LIG    1       -1.225   2.015   0.030  0.00  0.00    +0.000 A 
ATOM      4  C   LIG    1       -1.252   3.405   0.038  0.00  0.00    +0.110 A 
ATOM      5  C   LIG    1       -0.042   4.112   0.025  0.00  0.00    -0.130 A 
ATOM      6  C   LIG    1       -0.414   5.540   0.038  0.00  0.00    -0.120 A 
ATOM      7  C   LIG    1       -1.816   5.566   0.058  0.00  0.00    +0.080 A 
ATOM      8  C   LIG    1       -2.470   6.792   0.074  0.00  0.00    +0.030 A 
ATOM      9  C   LIG    1       -1.743   7.964   0.070  0.00  0.00    +0.060 A 
ATOM     10  C   LIG    1       -0.358   7.935   0.050  0.00  0.00    +0.010 A 
ATOM     11  C   LIG    1        0.309   6.728   0.035  0.00  0.00    +0.070 A 
ATOM     12  C   LIG    1        1.170   3.430   0.005  0.00  0.00    +0.110 A 
ATOM     13  O   LIG    1       -2.269   4.293   0.058  0.00  0.00    -0.200 OA
ATOM     14  C   LIG    1        1.180   2.051   0.002  0.00  0.00    -0.020 A 
ENDROOT
TORSDOF 0
ENDMDL
MODEL      301
REMARK  Name = ZINC000002579114
REMARK                            x       y       z     vdW  Elec       q    Type
REMARK                         _______ _______ _______ _____ _____    ______ ____
ROOT
ATOM      1  F   LIG    1        0.002  -0.004   0.002  0.00  0.00    -0.140 F 
ATOM      2  C   LIG    1       -0.016   1.347   0.009  0.00  0.00    +0.100 A 
ATOM      3  C   LIG    1       -1.226   2.022   0.030  0.00  0.00    -0.010 A 
ATOM      4  C   LIG    1       -1.250   3.405   0.038  0.00  0.00    +0.050 A 
ATOM      5  C   LIG    1       -0.070   4.120   0.025  0.00  0.00    +0.020 A 
ATOM      6  C   LIG    1        1.150   3.446   0.003  0.00  0.00    -0.020 A 
ATOM      7  C   LIG    1        1.172   2.054   0.002  0.00  0.00    -0.010 A 
ENDROOT
BRANCH   6   8
ATOM      8  C   LIG    1        2.422   4.211  -0.011  0.00  0.00    -0.020 A 
ATOM      9  C   LIG    1        2.400   5.604   0.003  0.00  0.00    +0.020 A 
ATOM     10  C   LIG    1        3.586   6.311  -0.011  0.00  0.00    +0.050 A 
ATOM     11  C   LIG    1        4.795   5.640  -0.037  0.00  0.00    -0.010 A 
ATOM     12  C   LIG    1        4.823   4.255  -0.051  0.00  0.00    +0.100 A 
ATOM     13  F   LIG    1        6.007   3.605  -0.078  0.00  0.00    -0.140 F 
ATOM     14  C   LIG    1        3.642   3.538  -0.032  0.00  0.00    -0.010 A 
ENDBRANCH   6   8
TORSDOF 1
ENDMDL
MODEL      302
REMARK  Name = ZINC000042375089
REMARK                            x       y       z     vdW  Elec       q    Type
REMARK                         _______ _______ _______ _____ _____    ______ ____
ROOT
ATOM      1  C   LIG    1        0.863  -1.968  -1.486  0.00  0.00    +0.030 C 
ENDROOT
BRANCH   1   2
ATOM      2  C   LIG    1        0.707  -0.490  -1.238  0.00  0.00    +0.360 C 
ATOM      3  O   LIG    1        1.148   0.305  -2.033  0.00  0.00    -0.450 OA
BRANCH   2   5
ATOM      4  C   LIG    1       -0.019   1.526   0.010  0.00  0.00    +0.040 C 
ATOM      5  C   LIG    1        0.002  -0.004   0.002  0.00  0.00    -0.120 C 
ATOM      6  C   LIG    1       -1.433  -0.534   0.013  0.00  0.00    +0.050 C 
ATOM      7  C   LIG    1        0.742  -0.511   1.242  0.00  0.00    +0.050 C 
ENDBRANCH   2   5
ENDBRANCH   1   2
BRANCH   1   8
ATOM      8  C   LIG    1        1.609  -2.189  -2.803  0.00  0.00    +0.040 C 
BRANCH   8   9
ATOM      9  C   LIG    1        1.767  -3.690  -3.055  0.00  0.00    -0.020 C 
ATOM     10  C   LIG    1        0.398  -4.329  -3.396  0.00  0.00    +0.020 C 
ATOM     11  C   LIG    1        0.801  -5.601  -4.183  0.00  0.00    -0.010 C 
ATOM     12  C   LIG    1        2.011  -5.154  -5.030  0.00  0.00    -0.010 C 
ATOM     13  C   LIG    1        2.625  -3.939  -4.313  0.00  0.00    +0.000 C 
ENDBRANCH   8   9
ENDBRANCH   1   8
TORSDOF 4
ENDMDL
MODEL      303
REMARK  Name = ZINC000002243137
REMARK                            x       y       z     vdW  Elec       q    Type
REMARK                         _______ _______ _______ _____ _____    ______ ____
ROOT
ATOM      1  N   LIG    1        2.350   4.161  -0.009  0.00  0.00    -0.690 N 
ATOM      2  H   LIG    1        2.331   5.131  -0.003  0.00  0.00    +0.410 HD
ENDROOT
BRANCH   1   8
ATOM      3  F   LIG    1       -0.228   0.253   0.959  0.00  0.00    -0.140 F 
ATOM      4  C   LIG    1       -0.127   1.474   0.390  0.00  0.00    +0.130 A 
ATOM      5  C   LIG    1       -1.208   2.013  -0.288  0.00  0.00    -0.050 A 
ATOM      6  C   LIG    1       -1.108   3.262  -0.872  0.00  0.00    +0.090 A 
ATOM      7  C   LIG    1        0.070   3.977  -0.781  0.00  0.00    -0.050 A 
ATOM      8  C   LIG    1        1.157   3.440  -0.102  0.00  0.00    +0.210 A 
ATOM      9  C   LIG    1        1.054   2.187   0.488  0.00  0.00    -0.060 A 
ENDBRANCH   1   8
BRANCH   1  10
ATOM     10  C   LIG    1        3.570   3.486   0.076  0.00  0.00    +0.170 A 
ATOM     11  C   LIG    1        3.722   2.244  -0.529  0.00  0.00    -0.040 A 
ATOM     12  C   LIG    1        4.929   1.580  -0.444  0.00  0.00    +0.040 A 
ATOM     13  C   LIG    1        5.986   2.148   0.244  0.00  0.00    -0.030 A 
ATOM     14  C   LIG    1        5.838   3.383   0.848  0.00  0.00    +0.040 A 
ATOM     15  C   LIG    1        4.635   4.056   0.760  0.00  0.00    -0.040 A 
ENDBRANCH   1  10
TORSDOF 2
ENDMDL
MODEL      304
REMARK  Name = ZINC000019772288
REMARK                            x       y       z     vdW  Elec       q    Type
REMARK                         _______ _______ _______ _____ _____    ______ ____
ROOT
ATOM      1  N   LIG    1        2.349   4.161  -0.008  0.00  0.00    -0.740 N 
ATOM      2  H   LIG    1        2.334   5.131  -0.002  0.00  0.00    +0.400 HD
ENDROOT
BRANCH   1   8
ATOM      3  F   LIG    1        0.002  -0.004   0.002  0.00  0.00    -0.140 F 
ATOM      4  C   LIG    1       -0.016   1.347   0.009  0.00  0.00    +0.150 A 
ATOM      5  C   LIG    1       -1.225   2.023   0.030  0.00  0.00    -0.090 A 
ATOM      6  C   LIG    1       -1.247   3.405   0.038  0.00  0.00    +0.090 A 
ATOM      7  C   LIG    1       -0.064   4.117   0.025  0.00  0.00    -0.080 A 
ATOM      8  C   LIG    1        1.151   3.443   0.005  0.00  0.00    +0.250 A 
ATOM      9  C   LIG    1        1.173   2.054   0.002  0.00  0.00    -0.110 A 
ENDBRANCH   1   8
BRANCH   1  10
ATOM     10  C   LIG    1        3.630   3.449  -0.029  0.00  0.00    +0.230 C 
ATOM     11  C   LIG    1        3.994   3.099  -1.474  0.00  0.00    +0.000 C 
ATOM     12  C   LIG    1        5.332   2.356  -1.496  0.00  0.00    +0.010 C 
ATOM     13  C   LIG    1        6.421   3.247  -0.897  0.00  0.00    +0.000 C 
ATOM     14  C   LIG    1        6.056   3.597   0.547  0.00  0.00    +0.020 C 
ATOM     15  C   LIG    1        4.719   4.340   0.570  0.00  0.00    +0.010 C 
ENDBRANCH   1  10
TORSDOF 2
ENDMDL
MODEL      305
REMARK  Name = ZINC000025336330
REMARK                            x       y       z     vdW  Elec       q    Type
REMARK                         _______ _______ _______ _____ _____    ______ ____
ROOT
ATOM      1  C   LIG    1       -0.018   1.503   0.010  0.00  0.00    +0.090 C 
ATOM      2  C   LIG    1        0.002  -0.004   0.002  0.00  0.00    -0.070 A 
ATOM      3  C   LIG    1        0.006  -0.684  -1.208  0.00  0.00    -0.030 A 
ATOM      4  C   LIG    1        0.024  -2.051  -1.236  0.00  0.00    +0.050 A 
ATOM      5  C   LIG    1        0.039  -2.768  -0.038  0.00  0.00    -0.110 A 
ATOM      6  C   LIG    1        0.060  -4.195   0.293  0.00  0.00    -0.050 A 
ATOM      7  C   LIG    1        0.067  -4.286   1.633  0.00  0.00    +0.090 A 
ATOM      8  N   LIG    1        0.053  -3.035   2.186  0.00  0.00    -0.590 N 
ATOM      9  H   LIG    1        0.055  -2.846   3.137  0.00  0.00    +0.410 HD
ATOM     10  C   LIG    1        0.036  -2.083   1.191  0.00  0.00    +0.100 A 
ATOM     11  C   LIG    1        0.023  -0.692   1.196  0.00  0.00    -0.010 A 
ENDROOT
BRANCH   7  12
ATOM     12  C   LIG    1        0.089  -5.576   2.412  0.00  0.00    -0.010 C 
ATOM     13  C   LIG    1       -1.155  -5.657   3.299  0.00  0.00    +0.040 C 
ATOM     14  C   LIG    1        1.344  -5.623   3.286  0.00  0.00    +0.040 C 
ATOM     15  C   LIG    1        0.100  -6.758   1.440  0.00  0.00    +0.040 C 
ENDBRANCH   7  12
TORSDOF 1
ENDMDL
MODEL      306
REMARK  Name = ZINC000025336333
REMARK                            x       y       z     vdW  Elec       q    Type
REMARK                         _______ _______ _______ _____ _____    ______ ____
ROOT
ATOM      1  C   LIG    1       -0.018   1.503   0.010  0.00  0.00    +0.100 C 
ATOM      2  C   LIG    1        0.002  -0.004   0.002  0.00  0.00    -0.040 A 
ATOM      3  C   LIG    1        0.006  -0.698  -1.209  0.00  0.00    -0.100 A 
ATOM      4  C   LIG    1       -0.007  -0.290  -2.616  0.00  0.00    -0.060 A 
ATOM      5  C   LIG    1        0.005  -1.414  -3.350  0.00  0.00    +0.090 A 
ATOM      6  N   LIG    1        0.025  -2.508  -2.529  0.00  0.00    -0.590 N 
ATOM      7  H   LIG    1        0.036  -3.430  -2.829  0.00  0.00    +0.410 HD
ATOM      8  C   LIG    1        0.025  -2.105  -1.212  0.00  0.00    +0.100 A 
ATOM      9  C   LIG    1        0.041  -2.789  -0.001  0.00  0.00    -0.020 A 
ATOM     10  C   LIG    1        0.037  -2.084   1.183  0.00  0.00    +0.020 A 
ATOM     11  C   LIG    1        0.023  -0.696   1.180  0.00  0.00    -0.030 A 
ENDROOT
BRANCH   5  12
ATOM     12  C   LIG    1       -0.001  -1.463  -4.857  0.00  0.00    -0.010 C 
ATOM     13  C   LIG    1       -1.262  -0.776  -5.384  0.00  0.00    +0.040 C 
ATOM     14  C   LIG    1        0.017  -2.921  -5.319  0.00  0.00    +0.040 C 
ATOM     15  C   LIG    1        1.236  -0.742  -5.396  0.00  0.00    +0.040 C 
ENDBRANCH   5  12
TORSDOF 1
ENDMDL
MODEL      307
REMARK  Name = ZINC000034099878
REMARK                            x       y       z     vdW  Elec       q    Type
REMARK                         _______ _______ _______ _____ _____    ______ ____
ROOT
ATOM      1  F   LIG    1        0.045   0.224   1.420  0.00  0.00    -0.130 F 
ATOM      2  C   LIG    1        0.016   1.517   1.028  0.00  0.00    +0.140 A 
ATOM      3  C   LIG    1       -1.192   2.189   0.947  0.00  0.00    -0.050 A 
ATOM      4  C   LIG    1       -1.223   3.511   0.545  0.00  0.00    +0.090 A 
ATOM      5  C   LIG    1       -0.050   4.166   0.226  0.00  0.00    -0.020 A 
ATOM      6  C   LIG    1        1.163   3.496   0.307  0.00  0.00    +0.150 A 
ATOM      7  C   LIG    1        1.195   2.171   0.714  0.00  0.00    -0.090 A 
ENDROOT
BRANCH   6   8
ATOM      8  O   LIG    1        2.318   4.140  -0.007  0.00  0.00    -0.250 OA
BRANCH   8   9
ATOM      9  C   LIG    1        3.480   3.441   0.077  0.00  0.00    +0.070 A 
ATOM     10  C   LIG    1        3.953   2.743  -1.025  0.00  0.00    +0.010 A 
ATOM     11  C   LIG    1        5.135   2.034  -0.936  0.00  0.00    +0.020 A 
ATOM     12  C   LIG    1        5.848   2.020   0.249  0.00  0.00    +0.020 A 
ATOM     13  C   LIG    1        5.379   2.715   1.348  0.00  0.00    +0.020 A 
ATOM     14  C   LIG    1        4.199   3.430   1.264  0.00  0.00    +0.010 A 
ENDBRANCH   8   9
ENDBRANCH   6   8
TORSDOF 2
ENDMDL
MODEL      308
REMARK  Name = ZINC000000394617
REMARK                            x       y       z     vdW  Elec       q    Type
REMARK                         _______ _______ _______ _____ _____    ______ ____
ROOT
ATOM      1  F   LIG    1        0.002  -0.004   0.002  0.00  0.00    -0.130 F 
ATOM      2  C   LIG    1       -0.016   1.347   0.009  0.00  0.00    +0.120 A 
ATOM      3  C   LIG    1       -1.222   2.023   0.030  0.00  0.00    -0.010 A 
ATOM      4  C   LIG    1       -1.240   3.406   0.038  0.00  0.00    +0.060 A 
ATOM      5  C   LIG    1       -0.056   4.120   0.025  0.00  0.00    +0.000 A 
ATOM      6  C   LIG    1        1.154   3.456   0.005  0.00  0.00    +0.070 A 
ATOM      7  C   LIG    1        1.182   2.063   0.002  0.00  0.00    -0.090 A 
ENDROOT
BRANCH   7   8
ATOM      8  C   LIG    1        2.479   1.344  -0.020  0.00  0.00    -0.090 A 
ATOM      9  C   LIG    1        3.352   1.444   1.061  0.00  0.00    +0.070 A 
ATOM     10  C   LIG    1        4.558   0.772   1.036  0.00  0.00    +0.000 A 
ATOM     11  C   LIG    1        4.902   0.001  -0.059  0.00  0.00    +0.060 A 
ATOM     12  C   LIG    1        4.041  -0.102  -1.137  0.00  0.00    -0.010 A 
ATOM     13  C   LIG    1        2.828   0.560  -1.121  0.00  0.00    +0.120 A 
ATOM     14  F   LIG    1        1.987   0.458  -2.173  0.00  0.00    -0.130 F 
ENDBRANCH   7   8
TORSDOF 1
ENDMDL
MODEL      309
REMARK  Name = ZINC000002243136
REMARK                            x       y       z     vdW  Elec       q    Type
REMARK                         _______ _______ _______ _____ _____    ______ ____
ROOT
ATOM      1  N   LIG    1        2.401   1.380  -0.019  0.00  0.00    -0.680 N 
ATOM      2  H   LIG    1        2.366   0.445  -0.275  0.00  0.00    +0.410 HD
ENDROOT
BRANCH   1   9
ATOM      3  F   LIG    1        0.098  -0.061   0.521  0.00  0.00    -0.140 F 
ATOM      4  C   LIG    1        0.107   1.273   0.737  0.00  0.00    +0.030 A 
ATOM      5  C   LIG    1       -1.023   1.903   1.224  0.00  0.00    +0.030 A 
ATOM      6  C   LIG    1       -1.014   3.268   1.444  0.00  0.00    -0.010 A 
ATOM      7  C   LIG    1        0.124   4.007   1.179  0.00  0.00    +0.050 A 
ATOM      8  C   LIG    1        1.257   3.385   0.692  0.00  0.00    -0.020 A 
ATOM      9  C   LIG    1        1.255   2.014   0.474  0.00  0.00    +0.170 A 
ENDBRANCH   1   9
BRANCH   1  10
ATOM     10  C   LIG    1        3.595   2.094  -0.142  0.00  0.00    +0.160 A 
ATOM     11  C   LIG    1        3.995   2.962   0.866  0.00  0.00    -0.020 A 
ATOM     12  C   LIG    1        5.176   3.666   0.740  0.00  0.00    +0.040 A 
ATOM     13  C   LIG    1        5.960   3.509  -0.388  0.00  0.00    -0.020 A 
ATOM     14  C   LIG    1        5.565   2.646  -1.393  0.00  0.00    +0.040 A 
ATOM     15  C   LIG    1        4.388   1.933  -1.272  0.00  0.00    -0.030 A 
ENDBRANCH   1  10
TORSDOF 2
ENDMDL
MODEL      310
REMARK  Name = ZINC000019772281
REMARK                            x       y       z     vdW  Elec       q    Type
REMARK                         _______ _______ _______ _____ _____    ______ ____
ROOT
ATOM      1  N   LIG    1        2.400   1.380  -0.019  0.00  0.00    -0.740 N 
ATOM      2  H   LIG    1        2.416   0.410  -0.020  0.00  0.00    +0.400 HD
ENDROOT
BRANCH   1   9
ATOM      3  F   LIG    1        0.002  -0.004   0.002  0.00  0.00    -0.150 F 
ATOM      4  C   LIG    1       -0.016   1.347   0.009  0.00  0.00    +0.010 A 
ATOM      5  C   LIG    1       -1.222   2.023   0.030  0.00  0.00    +0.020 A 
ATOM      6  C   LIG    1       -1.240   3.406   0.038  0.00  0.00    -0.020 A 
ATOM      7  C   LIG    1       -0.055   4.117   0.025  0.00  0.00    +0.050 A 
ATOM      8  C   LIG    1        1.154   3.448   0.004  0.00  0.00    -0.050 A 
ATOM      9  C   LIG    1        1.178   2.060   0.002  0.00  0.00    +0.190 A 
ENDBRANCH   1   9
BRANCH   1  10
ATOM     10  C   LIG    1        3.657   2.133  -0.038  0.00  0.00    +0.230 C 
ATOM     11  C   LIG    1        4.053   2.501   1.393  0.00  0.00    +0.000 C 
ATOM     12  C   LIG    1        5.366   3.287   1.372  0.00  0.00    +0.010 C 
ATOM     13  C   LIG    1        6.465   2.428   0.743  0.00  0.00    +0.000 C 
ATOM     14  C   LIG    1        6.069   2.060  -0.688  0.00  0.00    +0.020 C 
ATOM     15  C   LIG    1        4.756   1.274  -0.667  0.00  0.00    +0.010 C 
ENDBRANCH   1  10
TORSDOF 2
ENDMDL
MODEL      311
REMARK  Name = ZINC000002562320
REMARK                            x       y       z     vdW  Elec       q    Type
REMARK                         _______ _______ _______ _____ _____    ______ ____
ROOT
ATOM      1  P   LIG    1        1.742  -1.904   1.020  0.00  0.00    +0.080 P 
ATOM      2  H   LIG    1        3.078  -2.261   0.699  0.00  0.00    +0.090 HD
ENDROOT
BRANCH   1   6
ATOM      3  C   LIG    1       -0.019   1.534   0.011  0.00  0.00    +0.000 C 
ATOM      4  C   LIG    1        1.453   1.995  -0.001  0.00  0.00    +0.000 C 
ATOM      5  C   LIG    1        2.232   0.792   0.586  0.00  0.00    +0.020 C 
ATOM      6  C   LIG    1        1.486  -0.425  -0.014  0.00  0.00    -0.140 C 
ATOM      7  C   LIG    1        0.002  -0.004   0.002  0.00  0.00    +0.020 C 
ENDBRANCH   1   6
BRANCH   1   8
ATOM      8  C   LIG    1        0.784  -3.167   0.118  0.00  0.00    -0.120 C 
ATOM      9  C   LIG    1        1.414  -3.435  -1.271  0.00  0.00    +0.000 C 
ATOM     10  C   LIG    1        0.908  -4.860  -1.606  0.00  0.00    +0.000 C 
ATOM     11  C   LIG    1        0.948  -5.603  -0.255  0.00  0.00    +0.000 C 
ATOM     12  C   LIG    1        0.869  -4.527   0.842  0.00  0.00    +0.030 C 
ENDBRANCH   1   8
TORSDOF 2
ENDMDL
MODEL      312
REMARK  Name = ZINC000071786029
REMARK                            x       y       z     vdW  Elec       q    Type
REMARK                         _______ _______ _______ _____ _____    ______ ____
ROOT
ATOM      1  C   LIG    1       -0.019   1.527   0.010  0.00  0.00    +0.000 C 
ATOM      2  C   LIG    1        1.316   0.779  -0.006  0.00  0.00    +0.020 C 
ATOM      3  C   LIG    1        0.002  -0.004   0.002  0.00  0.00    -0.080 C 
ATOM      4  C   LIG    1       -0.391  -0.723   1.290  0.00  0.00    +0.050 C 
ATOM      5  C   LIG    1        0.495  -1.981   1.420  0.00  0.00    +0.010 C 
ATOM      6  C   LIG    1        0.035  -3.011   0.389  0.00  0.00    -0.000 C 
ATOM      7  C   LIG    1        1.120  -3.256  -0.663  0.00  0.00    +0.000 C 
ATOM      8  C   LIG    1        1.720  -1.940  -1.151  0.00  0.00    +0.020 C 
ATOM      9  C   LIG    1        0.737  -1.263  -2.122  0.00  0.00    +0.040 C 
ATOM     10  C   LIG    1       -0.414  -0.706  -1.292  0.00  0.00    -0.080 C 
ATOM     11  C   LIG    1       -1.733  -1.479  -1.286  0.00  0.00    +0.020 C 
ATOM     12  C   LIG    1       -1.629  -0.151  -2.038  0.00  0.00    +0.000 C 
ENDROOT
TORSDOF 0
ENDMDL
MODEL      313
REMARK  Name = ZINC000022015966
REMARK                            x       y       z     vdW  Elec       q    Type
REMARK                         _______ _______ _______ _____ _____    ______ ____
ROOT
ATOM      1  C   LIG    1       -0.019   1.526   0.010  0.00  0.00    +0.000 C 
ATOM      2  C   LIG    1        1.417   2.055  -0.000  0.00  0.00    +0.000 C 
ATOM      3  C   LIG    1        2.157   1.548   1.239  0.00  0.00    +0.000 C 
ATOM      4  C   LIG    1        2.178   0.019   1.231  0.00  0.00    -0.010 C 
ATOM      5  C   LIG    1        0.742  -0.511   1.242  0.00  0.00    +0.010 C 
ATOM      6  C   LIG    1        0.002  -0.004   0.002  0.00  0.00    +0.000 C 
ENDROOT
BRANCH   4   7
ATOM      7  C   LIG    1        2.917  -0.488   2.470  0.00  0.00    +0.000 C 
ATOM      8  C   LIG    1        2.933  -2.014   2.462  0.00  0.00    +0.010 C 
ATOM      9  C   LIG    1        3.421  -2.556   3.803  0.00  0.00    +0.030 C 
ATOM     10  C   LIG    1        4.919  -2.281   3.963  0.00  0.00    +0.100 C 
ATOM     11  S   LIG    1        5.187  -0.484   3.985  0.00  0.00    -0.270 S 
ATOM     12  C   LIG    1        4.352   0.047   2.460  0.00  0.00    +0.110 C 
ENDBRANCH   4   7
TORSDOF 1
ENDMDL
MODEL      314
REMARK  Name = ZINC000022015961
REMARK                            x       y       z     vdW  Elec       q    Type
REMARK                         _______ _______ _______ _____ _____    ______ ____
ROOT
ATOM      1  C   LIG    1       -0.019   1.526   0.010  0.00  0.00    +0.000 C 
ATOM      2  C   LIG    1        1.417   2.055  -0.000  0.00  0.00    +0.000 C 
ATOM      3  C   LIG    1        2.157   1.548   1.239  0.00  0.00    +0.010 C 
ATOM      4  C   LIG    1        2.178   0.019   1.231  0.00  0.00    -0.010 C 
ATOM      5  C   LIG    1        0.742  -0.511   1.242  0.00  0.00    +0.000 C 
ATOM      6  C   LIG    1        0.002  -0.004   0.002  0.00  0.00    +0.000 C 
ENDROOT
BRANCH   4   7
ATOM      7  C   LIG    1        2.917  -0.488   2.470  0.00  0.00    +0.000 C 
ATOM      8  C   LIG    1        4.347   0.045   2.460  0.00  0.00    +0.010 C 
ATOM      9  C   LIG    1        5.030  -0.214   3.800  0.00  0.00    +0.030 C 
ATOM     10  C   LIG    1        5.311  -1.710   3.962  0.00  0.00    +0.100 C 
ATOM     11  S   LIG    1        3.729  -2.606   3.987  0.00  0.00    -0.270 S 
ATOM     12  C   LIG    1        2.933  -2.019   2.462  0.00  0.00    +0.110 C 
ENDBRANCH   4   7
TORSDOF 1
ENDMDL
MODEL      315
REMARK  Name = ZINC000071613926
REMARK                            x       y       z     vdW  Elec       q    Type
REMARK                         _______ _______ _______ _____ _____    ______ ____
ROOT
ATOM      1  C   LIG    1       -0.019   1.526   0.010  0.00  0.00    +0.010 C 
ATOM      2  C   LIG    1        1.417   2.055  -0.000  0.00  0.00    +0.010 C 
ATOM      3  C   LIG    1        1.695   2.801   1.306  0.00  0.00    +0.010 C 
ATOM      4  C   LIG    1        2.775   2.059   2.097  0.00  0.00    +0.010 C 
ATOM      5  C   LIG    1        2.179   1.534   3.404  0.00  0.00    +0.010 C 
ATOM      6  C   LIG    1        2.197   0.004   3.394  0.00  0.00    +0.010 C 
ATOM      7  C   LIG    1        0.760  -0.523   3.406  0.00  0.00    +0.010 C 
ATOM      8  C   LIG    1        0.481  -1.272   2.101  0.00  0.00    +0.010 C 
ATOM      9  C   LIG    1       -0.597  -0.529   1.308  0.00  0.00    +0.010 C 
ATOM     10  C   LIG    1        0.002  -0.004   0.002  0.00  0.00    +0.010 C 
ENDROOT
TORSDOF 0
ENDMDL
MODEL      316
REMARK  Name = ZINC000071773079
REMARK                            x       y       z     vdW  Elec       q    Type
REMARK                         _______ _______ _______ _____ _____    ______ ____
ROOT
ATOM      1  C   LIG    1        1.444  -2.513  -2.505  0.00  0.00    -0.070 A 
ATOM      2  C   LIG    1        1.953  -1.602  -3.412  0.00  0.00    +0.020 A 
ATOM      3  C   LIG    1        2.600  -2.045  -4.549  0.00  0.00    -0.010 A 
ATOM      4  C   LIG    1        2.740  -3.405  -4.781  0.00  0.00    +0.100 A 
ATOM      5  C   LIG    1        2.228  -4.318  -3.870  0.00  0.00    -0.010 A 
ATOM      6  C   LIG    1        1.586  -3.870  -2.731  0.00  0.00    +0.020 A 
ENDROOT
BRANCH   1   7
ATOM      7  C   LIG    1        0.739  -2.027  -1.265  0.00  0.00    -0.020 C 
ATOM      8  C   LIG    1       -0.696  -2.557  -1.254  0.00  0.00    +0.040 C 
BRANCH   7   9
ATOM      9  C   LIG    1        1.479  -2.534  -0.026  0.00  0.00    +0.020 C 
ATOM     10  C   LIG    1        2.914  -2.005  -0.036  0.00  0.00    +0.010 C 
ENDBRANCH   7   9
BRANCH   7  11
ATOM     11  C   LIG    1        0.718  -0.497  -1.257  0.00  0.00    +0.020 C 
BRANCH  11  13
ATOM     12  C   LIG    1       -0.019   1.526   0.010  0.00  0.00    +0.000 C 
ATOM     13  C   LIG    1        0.002  -0.004   0.002  0.00  0.00    +0.000 C 
ENDBRANCH  11  13
ENDBRANCH   7  11
ENDBRANCH   1   7
BRANCH   4  14
ATOM     14  O   LIG    1        3.376  -3.844  -5.899  0.00  0.00    -0.500 OA
ATOM     15  H   LIG    1        4.329  -3.966  -5.787  0.00  0.00    +0.390 HD
ENDBRANCH   4  14
TORSDOF 5
ENDMDL
MODEL      317
REMARK  Name = ZINC000031623032
REMARK                            x       y       z     vdW  Elec       q    Type
REMARK                         _______ _______ _______ _____ _____    ______ ____
ROOT
ATOM      1  C   LIG    1        2.181  -4.537  -3.772  0.00  0.00    -0.110 A 
ATOM      2  C   LIG    1        1.452  -4.864  -4.899  0.00  0.00    +0.030 A 
ATOM      3  C   LIG    1        2.099  -5.310  -6.037  0.00  0.00    +0.000 A 
ATOM      4  C   LIG    1        3.476  -5.430  -6.050  0.00  0.00    +0.020 A 
ATOM      5  C   LIG    1        4.210  -5.104  -4.926  0.00  0.00    -0.010 A 
ATOM      6  C   LIG    1        3.564  -4.651  -3.785  0.00  0.00    +0.100 A 
ENDROOT
BRANCH   6   7
ATOM      7  O   LIG    1        4.284  -4.329  -2.678  0.00  0.00    -0.500 OA
ATOM      8  H   LIG    1        4.565  -3.404  -2.646  0.00  0.00    +0.390 HD
ENDBRANCH   6   7
BRANCH   1   9
ATOM      9  C   LIG    1        1.476  -4.051  -2.532  0.00  0.00    +0.070 C 
BRANCH   9  10
ATOM     10  C   LIG    1        1.455  -2.521  -2.524  0.00  0.00    +0.010 C 
BRANCH  10  11
ATOM     11  C   LIG    1        0.739  -2.027  -1.265  0.00  0.00    +0.000 C 
BRANCH  11  12
ATOM     12  C   LIG    1        0.718  -0.497  -1.257  0.00  0.00    +0.000 C 
BRANCH  12  14
ATOM     13  C   LIG    1       -0.019   1.526   0.010  0.00  0.00    +0.000 C 
ATOM     14  C   LIG    1        0.002  -0.004   0.002  0.00  0.00    -0.010 C 
ENDBRANCH  12  14
ENDBRANCH  11  12
ENDBRANCH  10  11
ENDBRANCH   9  10
ENDBRANCH   1   9
TORSDOF 6
ENDMDL
MODEL      318
REMARK  Name = ZINC000216366809
REMARK                            x       y       z     vdW  Elec       q    Type
REMARK                         _______ _______ _______ _____ _____    ______ ____
ROOT
ATOM      1  C   LIG    1       -0.019   1.524   0.010  0.00  0.00    +0.000 C 
ATOM      2  C   LIG    1        1.427   2.033  -0.001  0.00  0.00    +0.010 C 
ATOM      3  C   LIG    1        2.003   1.835  -1.403  0.00  0.00    +0.050 C 
ATOM      4  C   LIG    1        1.855   0.377  -1.831  0.00  0.00    +0.010 C 
ATOM      5  C   LIG    1        0.570   0.024  -2.550  0.00  0.00    -0.140 C 
ATOM      6  C   LIG    1       -0.199   0.122  -3.606  0.00  0.00    -0.150 C 
ATOM      7  C   LIG    1       -0.443   0.661  -4.984  0.00  0.00    +0.020 C 
ATOM      8  C   LIG    1       -0.736   2.141  -5.179  0.00  0.00    +0.050 C 
ATOM      9  C   LIG    1       -1.821   2.605  -4.207  0.00  0.00    +0.000 C 
ATOM     10  C   LIG    1       -3.052   1.710  -4.386  0.00  0.00    +0.010 C 
ATOM     11  C   LIG    1       -2.764   0.350  -3.750  0.00  0.00    +0.050 C 
ATOM     12  C   LIG    1       -1.484  -0.230  -4.325  0.00  0.00    +0.020 C 
ATOM     13  C   LIG    1        0.797  -0.512  -1.195  0.00  0.00    +0.010 C 
ATOM     14  C   LIG    1        0.002  -0.004   0.002  0.00  0.00    +0.050 C 
ENDROOT
TORSDOF 0
ENDMDL
MODEL      319
REMARK  Name = ZINC000100132035
REMARK                            x       y       z     vdW  Elec       q    Type
REMARK                         _______ _______ _______ _____ _____    ______ ____
ROOT
ATOM      1  C   LIG    1       -1.564  -2.053  -0.016  0.00  0.00    -0.010 C 
ATOM      2  C   LIG    1       -1.025  -2.559   1.345  0.00  0.00    -0.010 C 
ATOM      3  C   LIG    1       -1.525  -4.024   1.387  0.00  0.00    -0.020 C 
ATOM      4  C   LIG    1       -2.930  -3.963   0.753  0.00  0.00    -0.020 C 
ATOM      5  C   LIG    1       -3.994  -3.849   1.847  0.00  0.00    +0.020 C 
ATOM      6  C   LIG    1       -1.611  -4.518   2.833  0.00  0.00    +0.010 C 
ATOM      7  C   LIG    1       -1.619  -1.749   2.499  0.00  0.00    +0.020 C 
ATOM      8  C   LIG    1       -2.955  -2.709  -0.139  0.00  0.00    -0.020 C 
ATOM      9  C   LIG    1       -4.036  -1.742   0.346  0.00  0.00    +0.030 C 
ENDROOT
BRANCH   1  10
ATOM     10  C   LIG    1       -1.691  -0.528  -0.008  0.00  0.00    +0.010 C 
BRANCH  10  12
ATOM     11  C   LIG    1       -0.422   1.624  -0.004  0.00  0.00    +0.000 C 
ATOM     12  C   LIG    1       -0.295   0.100  -0.011  0.00  0.00    -0.010 C 
ENDBRANCH  10  12
ENDBRANCH   1  10
TORSDOF 2
ENDMDL
MODEL      320
REMARK  Name = ZINC000083728781
REMARK                            x       y       z     vdW  Elec       q    Type
REMARK                         _______ _______ _______ _____ _____    ______ ____
ROOT
ATOM      1  C   LIG    1        0.762  -2.018   1.233  0.00  0.00    +0.080 A 
ATOM      2  C   LIG    1        1.670  -2.772   0.594  0.00  0.00    -0.160 A 
ATOM      3  C   LIG    1        1.319  -4.172   0.849  0.00  0.00    -0.100 A 
ATOM      4  C   LIG    1        1.870  -5.396   0.465  0.00  0.00    +0.050 A 
ATOM      5  C   LIG    1        1.289  -6.561   0.880  0.00  0.00    -0.030 A 
ATOM      6  C   LIG    1        0.156  -6.538   1.681  0.00  0.00    +0.020 A 
ATOM      7  C   LIG    1       -0.404  -5.341   2.072  0.00  0.00    -0.010 A 
ATOM      8  C   LIG    1        0.171  -4.143   1.661  0.00  0.00    +0.100 A 
ATOM      9  N   LIG    1       -0.138  -2.819   1.881  0.00  0.00    -0.590 N 
ATOM     10  H   LIG    1       -0.884  -2.502   2.413  0.00  0.00    +0.410 HD
ENDROOT
BRANCH   2  11
ATOM     11  C   LIG    1        2.831  -2.275  -0.228  0.00  0.00    +0.090 C 
ATOM     12  C   LIG    1        4.056  -2.102   0.671  0.00  0.00    +0.010 C 
ENDBRANCH   2  11
BRANCH   1  13
ATOM     13  C   LIG    1        0.742  -0.511   1.242  0.00  0.00    +0.100 C 
BRANCH  13  15
ATOM     14  C   LIG    1       -0.019   1.526   0.010  0.00  0.00    +0.020 C 
ATOM     15  C   LIG    1        0.002  -0.004   0.002  0.00  0.00    +0.010 C 
ENDBRANCH  13  15
ENDBRANCH   1  13
TORSDOF 3
ENDMDL
MODEL      321
REMARK  Name = ZINC000032099550
REMARK                            x       y       z     vdW  Elec       q    Type
REMARK                         _______ _______ _______ _____ _____    ______ ____
ROOT
ATOM      1  C   LIG    1       -0.018   1.503   0.010  0.00  0.00    +0.130 C 
ATOM      2  C   LIG    1        0.002  -0.004   0.002  0.00  0.00    +0.160 A 
ATOM      3  C   LIG    1        0.005  -0.675  -1.218  0.00  0.00    -0.030 A 
ATOM      4  C   LIG    1        0.024  -2.041  -1.245  0.00  0.00    +0.090 A 
ATOM      5  C   LIG    1        0.040  -2.729  -0.018  0.00  0.00    -0.100 A 
ATOM      6  C   LIG    1        0.060  -4.132   0.033  0.00  0.00    +0.050 A 
ATOM      7  C   LIG    1        0.075  -4.761   1.242  0.00  0.00    -0.030 A 
ATOM      8  C   LIG    1        0.071  -4.030   2.429  0.00  0.00    +0.040 A 
ATOM      9  C   LIG    1        0.051  -2.670   2.415  0.00  0.00    -0.040 A 
ATOM     10  C   LIG    1        0.048  -1.900   3.711  0.00  0.00    +0.120 C 
ATOM     11 CL   LIG    1        0.101  -6.496   1.304  0.00  0.00    -0.060 Cl
ATOM     12  C   LIG    1        0.035  -1.984   1.188  0.00  0.00    +0.130 A 
ATOM     13  N   LIG    1        0.022  -0.648   1.144  0.00  0.00    -0.470 NA
ENDROOT
TORSDOF 0
ENDMDL
MODEL      322
REMARK  Name = ZINC000032099500
REMARK                            x       y       z     vdW  Elec       q    Type
REMARK                         _______ _______ _______ _____ _____    ______ ____
ROOT
ATOM      1  C   LIG    1       -0.018   1.503   0.010  0.00  0.00    +0.130 C 
ATOM      2  C   LIG    1        0.002  -0.004   0.002  0.00  0.00    +0.160 A 
ATOM      3  C   LIG    1        0.005  -0.675  -1.218  0.00  0.00    -0.030 A 
ATOM      4  C   LIG    1        0.024  -2.041  -1.245  0.00  0.00    +0.090 A 
ATOM      5  C   LIG    1        0.040  -2.729  -0.018  0.00  0.00    -0.100 A 
ATOM      6  C   LIG    1        0.060  -4.133   0.034  0.00  0.00    -0.020 A 
ATOM      7  C   LIG    1        0.075  -4.762   1.242  0.00  0.00    +0.040 A 
ATOM      8  C   LIG    1        0.071  -4.031   2.428  0.00  0.00    +0.040 A 
ATOM      9  C   LIG    1        0.051  -2.670   2.415  0.00  0.00    -0.050 A 
ATOM     10  C   LIG    1        0.046  -1.901   3.711  0.00  0.00    +0.120 C 
ATOM     11 CL   LIG    1        0.067  -5.061  -1.434  0.00  0.00    -0.060 Cl
ATOM     12  C   LIG    1        0.035  -1.984   1.188  0.00  0.00    +0.140 A 
ATOM     13  N   LIG    1        0.022  -0.648   1.144  0.00  0.00    -0.470 NA
ENDROOT
TORSDOF 0
ENDMDL
MODEL      323
REMARK  Name = ZINC000032099447
REMARK                            x       y       z     vdW  Elec       q    Type
REMARK                         _______ _______ _______ _____ _____    ______ ____
ROOT
ATOM      1  C   LIG    1       -0.018   1.503   0.010  0.00  0.00    +0.110 C 
ATOM      2  C   LIG    1        0.002  -0.004   0.002  0.00  0.00    -0.060 A 
ATOM      3  C   LIG    1        0.006  -0.683  -1.214  0.00  0.00    -0.070 A 
ATOM      4  C   LIG    1        0.025  -2.044  -1.255  0.00  0.00    +0.040 A 
ATOM      5  C   LIG    1        0.041  -2.773  -0.056  0.00  0.00    -0.100 A 
ATOM      6  C   LIG    1        0.062  -4.182  -0.054  0.00  0.00    +0.020 A 
ATOM      7  C   LIG    1        0.077  -4.825   1.152  0.00  0.00    -0.020 A 
ATOM      8  C   LIG    1        0.072  -4.087   2.333  0.00  0.00    +0.310 A 
ATOM      9  N   LIG    1        0.052  -2.776   2.327  0.00  0.00    -0.470 NA
ATOM     10 CL   LIG    1        0.068  -5.077  -1.542  0.00  0.00    -0.040 Cl
ATOM     11  C   LIG    1        0.037  -2.085   1.182  0.00  0.00    +0.140 A 
ATOM     12  C   LIG    1       -0.012   0.100  -2.502  0.00  0.00    +0.110 C 
ATOM     13  C   LIG    1        0.022  -0.680   1.183  0.00  0.00    +0.050 A 
ENDROOT
TORSDOF 0
ENDMDL
MODEL      324
REMARK  Name = ZINC000032135531
REMARK                            x       y       z     vdW  Elec       q    Type
REMARK                         _______ _______ _______ _____ _____    ______ ____
ROOT
ATOM      1  C   LIG    1       -0.203   1.510   0.730  0.00  0.00    +0.020 C 
ATOM      2  C   LIG    1       -0.161  -0.016   0.603  0.00  0.00    -0.050 C 
ATOM      3  C   LIG    1        0.006  -0.411  -0.862  0.00  0.00    +0.010 C 
ATOM      4  C   LIG    1        1.409  -0.084  -1.364  0.00  0.00    +0.010 C 
ATOM      5  C   LIG    1        2.439  -0.829  -0.519  0.00  0.00    +0.030 C 
ATOM      6  C   LIG    1        2.333  -0.406   0.947  0.00  0.00    -0.090 C 
ATOM      7  C   LIG    1        3.337  -1.233   1.735  0.00  0.00    +0.360 C 
ATOM      8  C   LIG    1        3.049  -2.692   1.991  0.00  0.00    +0.020 C 
ATOM      9  C   LIG    1        1.655  -2.764   2.623  0.00  0.00    +0.030 C 
ATOM     10  C   LIG    1        0.652  -2.128   1.655  0.00  0.00    +0.020 C 
ATOM     11  O   LIG    1        4.352  -0.720   2.148  0.00  0.00    -0.450 OA
ATOM     12  C   LIG    1        2.781   1.056   1.098  0.00  0.00    +0.050 C 
ATOM     13  C   LIG    1       -1.548  -0.514   1.060  0.00  0.00    +0.020 C 
ATOM     14  C   LIG    1        0.923  -0.632   1.480  0.00  0.00    +0.020 C 
ENDROOT
TORSDOF 0
ENDMDL
MODEL      325
REMARK  Name = ZINC000032135533
REMARK                            x       y       z     vdW  Elec       q    Type
REMARK                         _______ _______ _______ _____ _____    ______ ____
ROOT
ATOM      1  C   LIG    1       -0.157   1.541   0.595  0.00  0.00    +0.020 C 
ATOM      2  C   LIG    1       -0.129   0.018   0.471  0.00  0.00    -0.050 C 
ATOM      3  C   LIG    1        0.098  -0.385  -0.988  0.00  0.00    +0.010 C 
ATOM      4  C   LIG    1        1.552  -0.219  -1.412  0.00  0.00    +0.010 C 
ATOM      5  C   LIG    1        2.458  -1.048  -0.500  0.00  0.00    +0.040 C 
ATOM      6  C   LIG    1        2.329  -0.537   0.932  0.00  0.00    -0.090 C 
ATOM      7  C   LIG    1        3.139  -1.428   1.863  0.00  0.00    +0.370 C 
ATOM      8  C   LIG    1        3.014  -1.175   3.349  0.00  0.00    +0.020 C 
ATOM      9  C   LIG    1        1.537  -1.128   3.742  0.00  0.00    +0.040 C 
ATOM     10  C   LIG    1        0.771  -0.151   2.841  0.00  0.00    +0.020 C 
ATOM     11  O   LIG    1        3.849  -2.296   1.424  0.00  0.00    -0.450 OA
ATOM     12  C   LIG    1        2.905   0.875   1.028  0.00  0.00    +0.070 C 
ATOM     13  C   LIG    1       -1.536  -0.499   0.858  0.00  0.00    +0.020 C 
ATOM     14  C   LIG    1        0.882  -0.624   1.395  0.00  0.00    +0.000 C 
ENDROOT
TORSDOF 0
ENDMDL
MODEL      326
REMARK  Name = ZINC000032135532
REMARK                            x       y       z     vdW  Elec       q    Type
REMARK                         _______ _______ _______ _____ _____    ______ ____
ROOT
ATOM      1  C   LIG    1       -0.033   1.871  -0.069  0.00  0.00    +0.020 C 
ATOM      2  C   LIG    1       -0.097   0.324  -0.079  0.00  0.00    -0.050 C 
ATOM      3  C   LIG    1        0.597  -0.134  -1.363  0.00  0.00    +0.010 C 
ATOM      4  C   LIG    1        0.884  -1.630  -1.362  0.00  0.00    +0.010 C 
ATOM      5  C   LIG    1        1.747  -1.993  -0.152  0.00  0.00    +0.040 C 
ATOM      6  C   LIG    1        0.980  -1.664   1.126  0.00  0.00    -0.090 C 
ATOM      7  C   LIG    1        1.873  -1.915   2.332  0.00  0.00    +0.370 C 
ATOM      8  C   LIG    1        1.344  -1.501   3.687  0.00  0.00    +0.020 C 
ATOM      9  C   LIG    1        0.853  -0.054   3.629  0.00  0.00    +0.040 C 
ATOM     10  C   LIG    1       -0.116   0.140   2.456  0.00  0.00    +0.020 C 
ATOM     11  O   LIG    1        2.957  -2.425   2.203  0.00  0.00    -0.450 OA
ATOM     12  C   LIG    1       -0.233  -2.586   1.249  0.00  0.00    +0.070 C 
ATOM     13  C   LIG    1       -1.574  -0.067  -0.114  0.00  0.00    +0.020 C 
ATOM     14  C   LIG    1        0.612  -0.188   1.155  0.00  0.00    +0.000 C 
ENDROOT
TORSDOF 0
ENDMDL
MODEL      327
REMARK  Name = ZINC000032135534
REMARK                            x       y       z     vdW  Elec       q    Type
REMARK                         _______ _______ _______ _____ _____    ______ ____
ROOT
ATOM      1  C   LIG    1        0.055   1.236   0.943  0.00  0.00    +0.020 C 
ATOM      2  C   LIG    1        0.032  -0.117   0.202  0.00  0.00    -0.050 C 
ATOM      3  C   LIG    1        0.477   0.140  -1.235  0.00  0.00    +0.010 C 
ATOM      4  C   LIG    1        0.614  -1.168  -2.010  0.00  0.00    +0.010 C 
ATOM      5  C   LIG    1        1.635  -2.066  -1.317  0.00  0.00    +0.030 C 
ATOM      6  C   LIG    1        1.188  -2.385   0.109  0.00  0.00    -0.090 C 
ATOM      7  C   LIG    1        2.284  -3.217   0.758  0.00  0.00    +0.360 C 
ATOM      8  C   LIG    1        3.577  -2.549   1.156  0.00  0.00    +0.020 C 
ATOM      9  C   LIG    1        3.203  -1.347   2.030  0.00  0.00    +0.030 C 
ATOM     10  C   LIG    1        2.290  -0.424   1.216  0.00  0.00    +0.020 C 
ATOM     11  O   LIG    1        2.113  -4.400   0.949  0.00  0.00    -0.450 OA
ATOM     12  C   LIG    1       -0.059  -3.283   0.074  0.00  0.00    +0.050 C 
ATOM     13  C   LIG    1       -1.429  -0.578   0.221  0.00  0.00    +0.020 C 
ATOM     14  C   LIG    1        0.954  -1.106   0.905  0.00  0.00    +0.020 C 
ENDROOT
TORSDOF 0
ENDMDL
MODEL      328
REMARK  Name = ZINC000053766204
REMARK                            x       y       z     vdW  Elec       q    Type
REMARK                         _______ _______ _______ _____ _____    ______ ____
ROOT
ATOM      1  C   LIG    1        0.863  -1.968  -1.486  0.00  0.00    +0.030 C 
ENDROOT
BRANCH   1   2
ATOM      2  C   LIG    1        1.609  -2.189  -2.803  0.00  0.00    -0.010 C 
ATOM      3  C   LIG    1        3.035  -1.647  -2.679  0.00  0.00    +0.010 C 
ATOM      4  C   LIG    1        3.781  -1.868  -3.996  0.00  0.00    +0.000 C 
ATOM      5  C   LIG    1        3.830  -3.364  -4.310  0.00  0.00    +0.000 C 
ATOM      6  C   LIG    1        2.404  -3.906  -4.435  0.00  0.00    +0.000 C 
ATOM      7  C   LIG    1        1.658  -3.686  -3.117  0.00  0.00    +0.010 C 
ENDBRANCH   1   2
BRANCH   1   8
ATOM      8  C   LIG    1        0.707  -0.490  -1.238  0.00  0.00    +0.360 C 
ATOM      9  O   LIG    1        1.148   0.305  -2.033  0.00  0.00    -0.440 OA
BRANCH   8  11
ATOM     10  C   LIG    1       -0.019   1.526   0.010  0.00  0.00    +0.040 C 
ATOM     11  C   LIG    1        0.002  -0.004   0.002  0.00  0.00    -0.120 C 
ATOM     12  C   LIG    1       -1.433  -0.534   0.013  0.00  0.00    +0.050 C 
ATOM     13  C   LIG    1        0.742  -0.511   1.242  0.00  0.00    +0.050 C 
ENDBRANCH   8  11
ENDBRANCH   1   8
TORSDOF 3
ENDMDL
MODEL      329
REMARK  Name = ZINC000032190038
REMARK                            x       y       z     vdW  Elec       q    Type
REMARK                         _______ _______ _______ _____ _____    ______ ____
ROOT
ATOM      1  C   LIG    1        1.444  -2.513  -2.505  0.00  0.00    +0.100 A 
ATOM      2  N   LIG    1        2.701  -2.741  -2.575  0.00  0.00    -0.470 NA
ATOM      3  C   LIG    1        3.197  -3.174  -3.750  0.00  0.00    +0.080 A 
ATOM      4  C   LIG    1        4.523  -3.497  -4.103  0.00  0.00    +0.070 A 
ATOM      5  C   LIG    1        4.817  -3.922  -5.364  0.00  0.00    +0.030 A 
ATOM      6  C   LIG    1        3.821  -4.044  -6.322  0.00  0.00    +0.040 A 
ATOM      7  C   LIG    1        2.517  -3.735  -6.006  0.00  0.00    +0.060 A 
ATOM      8  C   LIG    1        2.198  -3.300  -4.722  0.00  0.00    -0.180 A 
ATOM      9  S   LIG    1        0.665  -2.836  -3.989  0.00  0.00    +0.100 S 
ENDROOT
BRANCH   1  10
ATOM     10  C   LIG    1        0.739  -2.027  -1.265  0.00  0.00    +0.140 C 
BRANCH  10  11
ATOM     11  C   LIG    1        0.718  -0.497  -1.257  0.00  0.00    +0.030 C 
BRANCH  11  13
ATOM     12  C   LIG    1       -0.019   1.526   0.010  0.00  0.00    +0.010 C 
ATOM     13  C   LIG    1        0.002  -0.004   0.002  0.00  0.00    +0.010 C 
ENDBRANCH  11  13
ENDBRANCH  10  11
ENDBRANCH   1  10
TORSDOF 3
ENDMDL
MODEL      330
REMARK  Name = ZINC000057988473
REMARK                            x       y       z     vdW  Elec       q    Type
REMARK                         _______ _______ _______ _____ _____    ______ ____
ROOT
ATOM      1  C   LIG    1       -0.018   1.468   0.010  0.00  0.00    +0.010 C 
ATOM      2  C   LIG    1       -0.734   1.961   1.269  0.00  0.00    +0.040 C 
ATOM      3  C   LIG    1       -0.755   3.491   1.277  0.00  0.00    -0.010 C 
ATOM      4  C   LIG    1       -1.495   3.998   0.038  0.00  0.00    +0.020 C 
ATOM      5  C   LIG    1       -0.779   3.504  -1.221  0.00  0.00    -0.010 C 
ATOM      6  C   LIG    1        0.657   4.034  -1.232  0.00  0.00    +0.020 C 
ATOM      7  C   LIG    1        1.397   3.527   0.008  0.00  0.00    -0.010 C 
ATOM      8  C   LIG    1        0.681   4.021   1.266  0.00  0.00    +0.020 C 
ATOM      9  C   LIG    1       -0.758   1.975  -1.229  0.00  0.00    +0.040 C 
ATOM     10  C   LIG    1        1.417   1.997  -0.001  0.00  0.00    +0.040 C 
ENDROOT
BRANCH   1  12
ATOM     11  P   LIG    1        0.022  -1.467  -0.006  0.00  0.00    +0.180 P 
ATOM     12  C   LIG    1        0.002  -0.004   0.002  0.00  0.00    -0.340 C 
ENDBRANCH   1  12
TORSDOF 1
ENDMDL
MODEL      331
REMARK  Name = ZINC000059092371
REMARK                            x       y       z     vdW  Elec       q    Type
REMARK                         _______ _______ _______ _____ _____    ______ ____
ROOT
ATOM      1  F   LIG    1        0.002  -0.004   0.002  0.00  0.00    -0.140 F 
ATOM      2  C   LIG    1       -0.016   1.347   0.009  0.00  0.00    +0.090 A 
ATOM      3  C   LIG    1       -1.224   2.023   0.030  0.00  0.00    -0.010 A 
ATOM      4  C   LIG    1       -1.242   3.405   0.038  0.00  0.00    +0.040 A 
ATOM      5  C   LIG    1       -0.054   4.112   0.025  0.00  0.00    -0.090 A 
ATOM      6  C   LIG    1        1.153   3.438   0.004  0.00  0.00    +0.040 A 
ATOM      7  C   LIG    1        1.173   2.056   0.002  0.00  0.00    -0.010 A 
ENDROOT
BRANCH   5   8
ATOM      8  C   LIG    1       -0.074   5.619   0.033  0.00  0.00    +0.030 C 
ATOM      9  C   LIG    1        0.658   6.132   1.275  0.00  0.00    +0.010 C 
ATOM     10  C   LIG    1        0.637   7.662   1.284  0.00  0.00    +0.000 C 
ATOM     11  C   LIG    1        1.333   8.188   0.027  0.00  0.00    +0.000 C 
ATOM     12  C   LIG    1        0.601   7.675  -1.214  0.00  0.00    +0.000 C 
ATOM     13  C   LIG    1        0.622   6.146  -1.223  0.00  0.00    +0.010 C 
ENDBRANCH   5   8
TORSDOF 1
ENDMDL
MODEL      332
REMARK  Name = ZINC000059289217
REMARK                            x       y       z     vdW  Elec       q    Type
REMARK                         _______ _______ _______ _____ _____    ______ ____
ROOT
ATOM      1  F   LIG    1        0.002  -0.004   0.002  0.00  0.00    -0.120 F 
ATOM      2  C   LIG    1       -0.016   1.347   0.009  0.00  0.00    +0.140 A 
ATOM      3  C   LIG    1       -1.224   2.023   0.030  0.00  0.00    +0.030 A 
ATOM      4  C   LIG    1       -1.243   3.405   0.038  0.00  0.00    +0.010 A 
ATOM      5  C   LIG    1       -0.054   4.114   0.025  0.00  0.00    -0.040 A 
ATOM      6  C   LIG    1        1.154   3.438   0.004  0.00  0.00    +0.010 A 
ATOM      7 CL   LIG    1        2.646   4.327  -0.012  0.00  0.00    -0.020 Cl
ATOM      8 CL   LIG    1       -0.077   5.850   0.034  0.00  0.00    -0.020 Cl
ATOM      9 CL   LIG    1       -2.758   4.253   0.065  0.00  0.00    -0.020 Cl
ATOM     10  C   LIG    1        1.173   2.055   0.002  0.00  0.00    +0.030 A 
ENDROOT
TORSDOF 0
ENDMDL
MODEL      333
REMARK  Name = ZINC000002037561
REMARK                            x       y       z     vdW  Elec       q    Type
REMARK                         _______ _______ _______ _____ _____    ______ ____
ROOT
ATOM      1  C   LIG    1       -1.413  -2.041   0.005  0.00  0.00    -0.090 A 
ATOM      2  C   LIG    1       -1.409  -2.725  -1.196  0.00  0.00    +0.000 A 
ATOM      3  C   LIG    1       -1.391  -4.107  -1.204  0.00  0.00    +0.000 A 
ATOM      4  C   LIG    1       -1.375  -4.805  -0.011  0.00  0.00    -0.090 A 
ATOM      5  C   LIG    1       -1.377  -4.120   1.190  0.00  0.00    +0.000 A 
ATOM      6  C   LIG    1       -1.392  -2.738   1.198  0.00  0.00    +0.000 A 
ENDROOT
BRANCH   1   7
ATOM      7  C   LIG    1       -1.433  -0.534   0.013  0.00  0.00    +0.060 C 
BRANCH   7   9
ATOM      8  C   LIG    1       -0.019   1.526   0.010  0.00  0.00    +0.010 C 
ATOM      9  C   LIG    1        0.002  -0.004   0.002  0.00  0.00    +0.000 C 
ENDBRANCH   7   9
ENDBRANCH   1   7
BRANCH   4  10
ATOM     10  C   LIG    1       -1.355  -6.312  -0.019  0.00  0.00    +0.060 C 
BRANCH  10  11
ATOM     11  C   LIG    1        0.094  -6.803  -0.029  0.00  0.00    +0.000 C 
ATOM     12  C   LIG    1        0.114  -8.332  -0.038  0.00  0.00    +0.010 C 
ENDBRANCH  10  11
ENDBRANCH   4  10
TORSDOF 4
ENDMDL
MODEL      334
REMARK  Name = ZINC000059302226
REMARK                            x       y       z     vdW  Elec       q    Type
REMARK                         _______ _______ _______ _____ _____    ______ ____
ROOT
ATOM      1  C   LIG    1        0.739  -2.004  -1.265  0.00  0.00    -0.050 A 
ATOM      2  C   LIG    1        1.788  -2.685  -0.675  0.00  0.00    +0.010 A 
ATOM      3  C   LIG    1        1.806  -4.067  -0.683  0.00  0.00    +0.070 A 
ATOM      4  C   LIG    1        0.776  -4.769  -1.280  0.00  0.00    -0.190 A 
ATOM      5  C   LIG    1       -0.274  -4.088  -1.869  0.00  0.00    +0.070 A 
ATOM      6  C   LIG    1       -0.294  -2.706  -1.858  0.00  0.00    +0.010 A 
ENDROOT
BRANCH   4   7
ATOM      7  C   LIG    1        0.797  -6.276  -1.289  0.00  0.00    +0.510 C 
ATOM      8  F   LIG    1        2.122  -6.724  -1.298  0.00  0.00    -0.180 F 
ATOM      9  F   LIG    1        0.138  -6.744  -2.430  0.00  0.00    -0.180 F 
ATOM     10  F   LIG    1        0.150  -6.757  -0.146  0.00  0.00    -0.180 F 
ENDBRANCH   4   7
BRANCH   1  11
ATOM     11  C   LIG    1        0.718  -0.497  -1.257  0.00  0.00    +0.070 C 
BRANCH  11  13
ATOM     12  C   LIG    1       -0.019   1.526   0.010  0.00  0.00    +0.030 C 
ATOM     13  C   LIG    1        0.002  -0.004   0.002  0.00  0.00    +0.000 C 
ENDBRANCH  11  13
ENDBRANCH   1  11
TORSDOF 3
ENDMDL
MODEL      335
REMARK  Name = ZINC000077011821
REMARK                            x       y       z     vdW  Elec       q    Type
REMARK                         _______ _______ _______ _____ _____    ______ ____
ROOT
ATOM      1  C   LIG    1       -1.413  -2.041   0.005  0.00  0.00    -0.060 A 
ATOM      2  C   LIG    1       -1.409  -2.725  -1.196  0.00  0.00    +0.010 A 
ATOM      3  C   LIG    1       -1.391  -4.107  -1.204  0.00  0.00    +0.050 A 
ATOM      4  C   LIG    1       -1.375  -4.805  -0.011  0.00  0.00    -0.160 A 
ATOM      5  C   LIG    1       -1.377  -4.120   1.190  0.00  0.00    +0.050 A 
ATOM      6  C   LIG    1       -1.392  -2.738   1.198  0.00  0.00    +0.010 A 
ENDROOT
BRANCH   4   7
ATOM      7  C   LIG    1       -1.355  -6.312  -0.019  0.00  0.00    +0.340 C 
ATOM      8  F   LIG    1       -2.014  -6.781  -1.160  0.00  0.00    -0.200 F 
ATOM      9  F   LIG    1       -2.002  -6.793   1.124  0.00  0.00    -0.200 F 
ATOM     10  C   LIG    1        0.094  -6.803  -0.029  0.00  0.00    +0.080 C 
ENDBRANCH   4   7
BRANCH   1  11
ATOM     11  C   LIG    1       -1.433  -0.534   0.013  0.00  0.00    +0.070 C 
BRANCH  11  13
ATOM     12  C   LIG    1       -0.019   1.526   0.010  0.00  0.00    +0.030 C 
ATOM     13  C   LIG    1        0.002  -0.004   0.002  0.00  0.00    +0.000 C 
ENDBRANCH  11  13
ENDBRANCH   1  11
TORSDOF 3
ENDMDL
MODEL      336
REMARK  Name = ZINC000066323195
REMARK                            x       y       z     vdW  Elec       q    Type
REMARK                         _______ _______ _______ _____ _____    ______ ____
ROOT
ATOM      1  F   LIG    1        0.002  -0.004   0.002  0.00  0.00    -0.110 F 
ATOM      2  C   LIG    1       -0.016   1.347   0.009  0.00  0.00    +0.180 A 
ATOM      3  C   LIG    1       -1.224   2.023   0.030  0.00  0.00    +0.000 A 
ATOM      4  C   LIG    1       -1.243   3.406   0.038  0.00  0.00    +0.040 A 
ATOM      5  C   LIG    1       -0.055   4.114   0.025  0.00  0.00    +0.000 A 
ATOM      6  C   LIG    1        1.153   3.439   0.004  0.00  0.00    +0.180 A 
ATOM      7  F   LIG    1        2.313   4.132  -0.008  0.00  0.00    -0.110 F 
ATOM      8 CL   LIG    1       -2.758   4.253   0.064  0.00  0.00    -0.030 Cl
ATOM      9  C   LIG    1        1.173   2.055   0.002  0.00  0.00    -0.250 A 
ENDROOT
BRANCH   9  10
ATOM     10  C   LIG    1        2.488   1.320  -0.021  0.00  0.00    +0.450 C 
ATOM     11  F   LIG    1        3.442   2.091  -0.695  0.00  0.00    -0.190 F 
ATOM     12  F   LIG    1        2.327   0.096  -0.680  0.00  0.00    -0.190 F 
ENDBRANCH   9  10
TORSDOF 1
ENDMDL
MODEL      337
REMARK  Name = ZINC000064220167
REMARK                            x       y       z     vdW  Elec       q    Type
REMARK                         _______ _______ _______ _____ _____    ______ ____
ROOT
ATOM      1  C   LIG    1       -1.203   3.469   0.027  0.00  0.00    -0.120 C 
ATOM      2  C   LIG    1       -2.372   4.073   0.041  0.00  0.00    +0.020 C 
ATOM      3  C   LIG    1       -2.541   5.564   0.041  0.00  0.00    +0.070 C 
ATOM      4  C   LIG    1       -1.231   6.243   0.448  0.00  0.00    +0.010 C 
ATOM      5  C   LIG    1       -0.095   5.653  -0.396  0.00  0.00    +0.020 C 
ATOM      6  C   LIG    1        0.111   4.194   0.024  0.00  0.00    +0.080 C 
ENDROOT
BRANCH   1   9
ATOM      7  F   LIG    1        0.002  -0.004   0.002  0.00  0.00    -0.110 F 
ATOM      8  C   LIG    1       -0.016   1.347   0.009  0.00  0.00    +0.180 C 
ATOM      9  C   LIG    1       -1.183   2.000   0.018  0.00  0.00    +0.060 C 
ATOM     10  F   LIG    1       -2.344   1.308   0.020  0.00  0.00    -0.110 F 
ATOM     11  F   LIG    1        1.144   2.038   0.002  0.00  0.00    -0.100 F 
ENDBRANCH   1   9
TORSDOF 1
ENDMDL
MODEL      338
REMARK  Name = ZINC000033427267
REMARK                            x       y       z     vdW  Elec       q    Type
REMARK                         _______ _______ _______ _____ _____    ______ ____
ROOT
ATOM      1  C   LIG    1       -0.018   1.503   0.010  0.00  0.00    +0.090 C 
ATOM      2  C   LIG    1        0.002  -0.004   0.002  0.00  0.00    -0.070 A 
ATOM      3  C   LIG    1        0.006  -0.689  -1.196  0.00  0.00    -0.010 A 
ATOM      4  C   LIG    1        0.024  -2.072  -1.205  0.00  0.00    +0.010 A 
ATOM      5  C   LIG    1        0.039  -2.776  -0.015  0.00  0.00    -0.010 A 
ATOM      6  C   LIG    1        0.036  -2.102   1.189  0.00  0.00    -0.070 A 
ATOM      7  C   LIG    1        0.053  -2.871   2.485  0.00  0.00    +0.090 C 
ATOM      8  C   LIG    1        0.023  -0.709   1.204  0.00  0.00    -0.060 A 
ENDROOT
BRANCH   8   9
ATOM      9  C   LIG    1        0.020   0.022   2.495  0.00  0.00    -0.050 A 
ATOM     10  C   LIG    1       -1.068  -0.092   3.360  0.00  0.00    +0.040 A 
ATOM     11  C   LIG    1       -1.068   0.587   4.559  0.00  0.00    -0.010 A 
ATOM     12  C   LIG    1        0.014   1.386   4.907  0.00  0.00    +0.110 A 
ATOM     13  C   LIG    1        1.098   1.502   4.048  0.00  0.00    -0.010 A 
ATOM     14  C   LIG    1        1.107   0.820   2.849  0.00  0.00    +0.040 A 
BRANCH  12  15
ATOM     15  O   LIG    1        0.011   2.055   6.089  0.00  0.00    -0.500 OA
ATOM     16  H   LIG    1        0.395   1.556   6.824  0.00  0.00    +0.390 HD
ENDBRANCH  12  15
ENDBRANCH   8   9
TORSDOF 2
ENDMDL
MODEL      339
REMARK  Name = ZINC000033420150
REMARK                            x       y       z     vdW  Elec       q    Type
REMARK                         _______ _______ _______ _____ _____    ______ ____
ROOT
ATOM      1  C   LIG    1       -1.412  -0.526   0.013  0.00  0.00    -0.070 A 
ATOM      2  C   LIG    1       -2.258  -0.201   1.062  0.00  0.00    +0.060 A 
ATOM      3  C   LIG    1       -3.555  -0.670   1.086  0.00  0.00    +0.050 A 
ATOM      4  C   LIG    1       -4.018  -1.473   0.055  0.00  0.00    +0.010 A 
ATOM      5  O   LIG    1       -5.200  -2.074  -0.207  0.00  0.00    -0.200 OA
ATOM      6  C   LIG    1       -5.083  -2.740  -1.367  0.00  0.00    +0.280 A 
ATOM      7  N   LIG    1       -3.886  -2.590  -1.854  0.00  0.00    -0.440 NA
ATOM      8 CL   LIG    1       -6.348  -3.666  -2.112  0.00  0.00    +0.100 Cl
ATOM      9  C   LIG    1       -3.165  -1.804  -1.009  0.00  0.00    +0.030 A 
ATOM     10  C   LIG    1       -1.857  -1.318  -1.023  0.00  0.00    +0.090 A 
ENDROOT
BRANCH   1  12
ATOM     11  C   LIG    1       -0.019   1.526   0.010  0.00  0.00    +0.030 C 
ATOM     12  C   LIG    1        0.002  -0.004   0.002  0.00  0.00    +0.020 C 
ATOM     13  C   LIG    1        0.742  -0.511   1.242  0.00  0.00    +0.030 C 
ENDBRANCH   1  12
TORSDOF 1
ENDMDL
MODEL      340
REMARK  Name = ZINC000068677290
REMARK                            x       y       z     vdW  Elec       q    Type
REMARK                         _______ _______ _______ _____ _____    ______ ____
ROOT
ATOM      1  C   LIG    1       -0.191   1.099  -0.321  0.00  0.00    +0.080 C 
ATOM      2  C   LIG    1       -0.285  -0.390  -0.112  0.00  0.00    -0.090 A 
ATOM      3  C   LIG    1       -0.534  -1.224  -1.184  0.00  0.00    +0.000 A 
ATOM      4  C   LIG    1       -0.621  -2.591  -0.993  0.00  0.00    +0.000 A 
ATOM      5  C   LIG    1       -0.460  -3.127   0.272  0.00  0.00    +0.000 A 
ATOM      6  C   LIG    1       -0.211  -2.299   1.348  0.00  0.00    +0.000 A 
ATOM      7  C   LIG    1       -0.117  -0.926   1.159  0.00  0.00    +0.180 A 
ENDROOT
BRANCH   7   8
ATOM      8  N   LIG    1        0.135  -0.085   2.246  0.00  0.00    -0.660 N 
BRANCH   8   9
ATOM      9  C   LIG    1       -0.962   0.317   3.130  0.00  0.00    +0.250 C 
ATOM     10  C   LIG    1       -1.550  -0.921   3.808  0.00  0.00    +0.010 C 
ATOM     11  C   LIG    1       -2.049   1.015   2.310  0.00  0.00    +0.010 C 
ENDBRANCH   8   9
BRANCH   8  12
ATOM     12  C   LIG    1        1.495   0.394   2.501  0.00  0.00    +0.240 C 
ATOM     13  C   LIG    1        1.999  -0.181   3.826  0.00  0.00    +0.010 C 
ATOM     14  C   LIG    1        1.492   1.922   2.577  0.00  0.00    +0.010 C 
ENDBRANCH   8  12
ENDBRANCH   7   8
TORSDOF 3
ENDMDL
MODEL      341
REMARK  Name = ZINC000002012670
REMARK                            x       y       z     vdW  Elec       q    Type
REMARK                         _______ _______ _______ _____ _____    ______ ____
ROOT
ATOM      1  C   LIG    1        0.762  -2.018   1.233  0.00  0.00    -0.070 A 
ATOM      2  C   LIG    1        1.764  -2.707   0.528  0.00  0.00    -0.050 A 
ATOM      3  C   LIG    1        2.763  -2.018  -0.181  0.00  0.00    +0.020 A 
ATOM      4  C   LIG    1        3.717  -2.718  -0.852  0.00  0.00    +0.000 A 
ATOM      5  C   LIG    1        3.719  -4.112  -0.849  0.00  0.00    +0.000 A 
ATOM      6  C   LIG    1        2.768  -4.813  -0.174  0.00  0.00    +0.020 A 
ATOM      7  C   LIG    1        1.766  -4.124   0.532  0.00  0.00    -0.050 A 
ATOM      8  C   LIG    1        0.768  -4.813   1.240  0.00  0.00    +0.020 A 
ATOM      9  C   LIG    1       -0.186  -4.112   1.913  0.00  0.00    +0.010 A 
ATOM     10  C   LIG    1       -0.186  -2.719   1.914  0.00  0.00    +0.000 A 
ENDROOT
BRANCH   1  11
ATOM     11  C   LIG    1        0.742  -0.511   1.242  0.00  0.00    +0.060 C 
BRANCH  11  13
ATOM     12  C   LIG    1       -0.019   1.526   0.010  0.00  0.00    +0.020 C 
ATOM     13  C   LIG    1        0.002  -0.004   0.002  0.00  0.00    +0.000 C 
ENDBRANCH  11  13
ENDBRANCH   1  11
TORSDOF 2
ENDMDL
MODEL      342
REMARK  Name = ZINC000003107420
REMARK                            x       y       z     vdW  Elec       q    Type
REMARK                         _______ _______ _______ _____ _____    ______ ____
ROOT
ATOM      1  C   LIG    1        0.739  -2.004  -1.265  0.00  0.00    +0.140 A 
ATOM      2  C   LIG    1        0.234  -2.687  -2.356  0.00  0.00    -0.030 A 
ATOM      3  C   LIG    1        0.256  -4.075  -2.360  0.00  0.00    +0.070 A 
ATOM      4  C   LIG    1        0.785  -4.730  -1.262  0.00  0.00    -0.030 A 
ATOM      5  C   LIG    1        1.276  -3.979  -0.197  0.00  0.00    +0.170 A 
ATOM      6  N   LIG    1        1.242  -2.653  -0.234  0.00  0.00    -0.470 NA
ENDROOT
BRANCH   5   7
ATOM      7  C   LIG    1        1.847  -4.666   0.987  0.00  0.00    -0.050 A 
ATOM      8  C   LIG    1        1.897  -6.058   1.031  0.00  0.00    +0.030 A 
ATOM      9  C   LIG    1        2.430  -6.693   2.135  0.00  0.00    +0.010 A 
ATOM     10  C   LIG    1        2.914  -5.950   3.196  0.00  0.00    +0.010 A 
ATOM     11  C   LIG    1        2.866  -4.568   3.159  0.00  0.00    +0.000 A 
ATOM     12  C   LIG    1        2.340  -3.923   2.058  0.00  0.00    +0.050 A 
ENDBRANCH   5   7
BRANCH   1  13
ATOM     13  C   LIG    1        0.718  -0.497  -1.257  0.00  0.00    +0.090 C 
BRANCH  13  15
ATOM     14  C   LIG    1       -0.019   1.526   0.010  0.00  0.00    +0.020 C 
ATOM     15  C   LIG    1        0.002  -0.004   0.002  0.00  0.00    +0.010 C 
ENDBRANCH  13  15
ENDBRANCH   1  13
TORSDOF 3
ENDMDL
MODEL      343
REMARK  Name = ZINC000033796370
REMARK                            x       y       z     vdW  Elec       q    Type
REMARK                         _______ _______ _______ _____ _____    ______ ____
ROOT
ATOM      1  C   LIG    1        0.187   1.237   0.561  0.00  0.00    +0.080 C 
ATOM      2  C   LIG    1        0.088  -0.258   0.400  0.00  0.00    -0.040 A 
ATOM      3  C   LIG    1        0.143  -0.821  -0.860  0.00  0.00    -0.080 A 
ATOM      4  C   LIG    1        0.052  -2.200  -1.007  0.00  0.00    +0.230 A 
ATOM      5  C   LIG    1       -0.094  -3.006   0.114  0.00  0.00    -0.080 A 
ATOM      6  C   LIG    1       -0.148  -2.437   1.371  0.00  0.00    -0.040 A 
ATOM      7  C   LIG    1       -0.307  -3.311   2.588  0.00  0.00    +0.080 C 
ATOM      8  C   LIG    1       -0.052  -1.065   1.514  0.00  0.00    -0.060 A 
ENDROOT
BRANCH   4   9
ATOM      9  N   LIG    1        0.108  -2.773  -2.279  0.00  0.00    -0.740 N 
ATOM     10  H   LIG    1        0.113  -2.206  -3.067  0.00  0.00    +0.400 HD
BRANCH   9  11
ATOM     11  C   LIG    1        0.159  -4.229  -2.425  0.00  0.00    +0.170 C 
ATOM     12  C   LIG    1        1.332  -4.782  -1.613  0.00  0.00    +0.020 C 
ATOM     13  C   LIG    1        0.347  -4.588  -3.901  0.00  0.00    +0.040 C 
ATOM     14  C   LIG    1       -1.148  -4.839  -1.914  0.00  0.00    +0.010 C 
ENDBRANCH   9  11
ENDBRANCH   4   9
TORSDOF 2
ENDMDL
MODEL      344
REMARK  Name = ZINC000033835179
REMARK                            x       y       z     vdW  Elec       q    Type
REMARK                         _______ _______ _______ _____ _____    ______ ____
ROOT
ATOM      1  C   LIG    1       -1.526  -2.312   0.131  0.00  0.00    -0.080 A 
ATOM      2  C   LIG    1       -0.314  -2.901  -0.209  0.00  0.00    +0.020 A 
ATOM      3  C   LIG    1       -0.219  -4.275  -0.302  0.00  0.00    +0.050 A 
ATOM      4  C   LIG    1       -1.328  -5.066  -0.058  0.00  0.00    -0.040 A 
ATOM      5  C   LIG    1       -2.536  -4.482   0.281  0.00  0.00    +0.050 A 
ATOM      6 CL   LIG    1       -1.204  -6.793  -0.177  0.00  0.00    -0.070 Cl
ATOM      7  C   LIG    1       -2.637  -3.108   0.382  0.00  0.00    +0.050 A 
ENDROOT
BRANCH   1   8
ATOM      8  S   LIG    1       -1.652  -0.558   0.252  0.00  0.00    -0.110 S 
BRANCH   8  10
ATOM      9  C   LIG    1        0.074  -0.249  -1.847  0.00  0.00    +0.050 C 
ATOM     10  C   LIG    1       -0.035   0.009  -0.343  0.00  0.00    +0.020 C 
ATOM     11  C   LIG    1        0.112   1.508  -0.070  0.00  0.00    +0.080 C 
ENDBRANCH   8  10
ENDBRANCH   1   8
TORSDOF 2
ENDMDL
MODEL      345
REMARK  Name = ZINC000003107134
REMARK                            x       y       z     vdW  Elec       q    Type
REMARK                         _______ _______ _______ _____ _____    ______ ____
ROOT
ATOM      1  C   LIG    1       -1.413  -2.041   0.005  0.00  0.00    -0.080 A 
ATOM      2  C   LIG    1       -1.409  -2.725  -1.196  0.00  0.00    +0.000 A 
ATOM      3  C   LIG    1       -1.391  -4.107  -1.204  0.00  0.00    +0.010 A 
ATOM      4  C   LIG    1       -1.375  -4.805  -0.011  0.00  0.00    +0.000 A 
ATOM      5  C   LIG    1       -1.378  -4.120   1.190  0.00  0.00    -0.080 A 
ATOM      6  C   LIG    1       -1.392  -2.738   1.198  0.00  0.00    +0.000 A 
ENDROOT
BRANCH   1   7
ATOM      7  C   LIG    1       -1.433  -0.534   0.013  0.00  0.00    +0.060 C 
BRANCH   7   9
ATOM      8  C   LIG    1       -0.019   1.526   0.010  0.00  0.00    +0.010 C 
ATOM      9  C   LIG    1        0.002  -0.004   0.002  0.00  0.00    +0.000 C 
ENDBRANCH   7   9
ENDBRANCH   1   7
BRANCH   5  10
ATOM     10  C   LIG    1       -1.361  -4.881   2.491  0.00  0.00    +0.060 C 
BRANCH  10  11
ATOM     11  C   LIG    1        0.087  -5.120   2.924  0.00  0.00    +0.000 C 
ATOM     12  C   LIG    1        0.103  -5.892   4.245  0.00  0.00    +0.010 C 
ENDBRANCH  10  11
ENDBRANCH   5  10
TORSDOF 4
ENDMDL
MODEL      346
REMARK  Name = ZINC000033951416
REMARK                            x       y       z     vdW  Elec       q    Type
REMARK                         _______ _______ _______ _____ _____    ______ ____
ROOT
ATOM      1  C   LIG    1       -0.165   1.524   0.559  0.00  0.00    +0.020 C 
ATOM      2  C   LIG    1       -0.126   0.000   0.439  0.00  0.00    -0.050 C 
ATOM      3  C   LIG    1        0.117  -0.395  -1.017  0.00  0.00    +0.010 C 
ATOM      4  C   LIG    1        1.570  -0.167  -1.423  0.00  0.00    +0.010 C 
ATOM      5  C   LIG    1        2.477  -1.006  -0.523  0.00  0.00    +0.020 C 
ATOM      6  C   LIG    1        2.330  -0.549   0.929  0.00  0.00    -0.040 C 
ATOM      7  C   LIG    1        3.159  -1.509   1.810  0.00  0.00    +0.020 C 
ATOM      8  C   LIG    1        2.953  -1.102   3.252  0.00  0.00    +0.360 C 
ATOM      9  C   LIG    1        1.538  -0.979   3.769  0.00  0.00    +0.020 C 
ATOM     10  C   LIG    1        0.729  -0.097   2.807  0.00  0.00    +0.040 C 
ATOM     11  O   LIG    1        3.898  -0.883   3.974  0.00  0.00    -0.460 OA
ATOM     12  C   LIG    1        2.920   0.853   1.088  0.00  0.00    +0.040 C 
ATOM     13  C   LIG    1       -1.532  -0.526   0.810  0.00  0.00    +0.020 C 
ATOM     14  C   LIG    1        0.881  -0.628   1.382  0.00  0.00    +0.010 C 
ENDROOT
TORSDOF 0
ENDMDL
MODEL      347
REMARK  Name = ZINC000000967181
REMARK                            x       y       z     vdW  Elec       q    Type
REMARK                         _______ _______ _______ _____ _____    ______ ____
ROOT
ATOM      1  C   LIG    1       -1.413  -2.041   0.005  0.00  0.00    -0.030 A 
ATOM      2  C   LIG    1       -1.409  -2.743  -1.192  0.00  0.00    -0.040 A 
ATOM      3  C   LIG    1       -1.390  -4.126  -1.166  0.00  0.00    +0.270 A 
ATOM      4  N   LIG    1       -1.376  -4.781  -0.023  0.00  0.00    -0.480 NA
ATOM      5  C   LIG    1       -1.379  -4.147   1.142  0.00  0.00    +0.170 A 
ATOM      6  C   LIG    1       -1.392  -2.755   1.190  0.00  0.00    -0.020 A 
ENDROOT
BRANCH   5   7
ATOM      7  C   LIG    1       -1.363  -4.926   2.404  0.00  0.00    -0.050 A 
ATOM      8  C   LIG    1       -1.372  -4.269   3.633  0.00  0.00    +0.030 A 
ATOM      9  C   LIG    1       -1.357  -4.999   4.803  0.00  0.00    +0.010 A 
ATOM     10  C   LIG    1       -1.333  -6.381   4.759  0.00  0.00    +0.010 A 
ATOM     11  C   LIG    1       -1.323  -7.040   3.542  0.00  0.00    +0.000 A 
ATOM     12  C   LIG    1       -1.344  -6.319   2.365  0.00  0.00    +0.050 A 
ENDBRANCH   5   7
BRANCH   1  13
ATOM     13  C   LIG    1       -1.433  -0.534   0.013  0.00  0.00    +0.080 C 
BRANCH  13  15
ATOM     14  C   LIG    1       -0.019   1.526   0.010  0.00  0.00    +0.030 C 
ATOM     15  C   LIG    1        0.002  -0.004   0.002  0.00  0.00    +0.000 C 
ENDBRANCH  13  15
ENDBRANCH   1  13
TORSDOF 3
ENDMDL
MODEL      348
REMARK  Name = ZINC000001689951
REMARK                            x       y       z     vdW  Elec       q    Type
REMARK                         _______ _______ _______ _____ _____    ______ ____
ROOT
ATOM      1  C   LIG    1       -0.018   1.503   0.010  0.00  0.00    +0.090 C 
ATOM      2  C   LIG    1        0.002  -0.004   0.002  0.00  0.00    -0.080 A 
ATOM      3  C   LIG    1        0.006  -0.688  -1.200  0.00  0.00    +0.000 A 
ATOM      4  C   LIG    1        0.025  -2.071  -1.215  0.00  0.00    +0.020 A 
ATOM      5  C   LIG    1        0.040  -2.776  -0.029  0.00  0.00    +0.000 A 
ATOM      6  C   LIG    1        0.036  -2.092   1.185  0.00  0.00    -0.040 A 
ATOM      7  C   LIG    1        0.023  -0.699   1.194  0.00  0.00    +0.010 A 
ENDROOT
BRANCH   6   8
ATOM      8  C   LIG    1        0.053  -2.845   2.464  0.00  0.00    -0.040 A 
ATOM      9  C   LIG    1        0.044  -2.162   3.678  0.00  0.00    +0.000 A 
ATOM     10  C   LIG    1        0.058  -2.867   4.864  0.00  0.00    +0.020 A 
ATOM     11  C   LIG    1        0.082  -4.250   4.849  0.00  0.00    +0.000 A 
ATOM     12  C   LIG    1        0.091  -4.934   3.647  0.00  0.00    -0.080 A 
ATOM     13  C   LIG    1        0.118  -6.441   3.638  0.00  0.00    +0.090 C 
ATOM     14  C   LIG    1        0.071  -4.239   2.454  0.00  0.00    +0.010 A 
ENDBRANCH   6   8
TORSDOF 1
ENDMDL
MODEL      349
REMARK  Name = ZINC000034200146
REMARK                            x       y       z     vdW  Elec       q    Type
REMARK                         _______ _______ _______ _____ _____    ______ ____
ROOT
ATOM      1  C   LIG    1        0.518  -2.066  -1.357  0.00  0.00    -0.100 A 
ATOM      2  C   LIG    1        0.946  -2.929  -0.365  0.00  0.00    +0.050 A 
ATOM      3  C   LIG    1        0.750  -4.290  -0.500  0.00  0.00    -0.020 A 
ATOM      4  C   LIG    1        0.124  -4.790  -1.632  0.00  0.00    +0.120 A 
ATOM      5  C   LIG    1       -0.304  -3.922  -2.626  0.00  0.00    -0.080 A 
ATOM      6  C   LIG    1       -0.110  -2.562  -2.484  0.00  0.00    +0.040 A 
ENDROOT
BRANCH   4   7
ATOM      7  O   LIG    1       -0.069  -6.128  -1.768  0.00  0.00    -0.320 OA
ATOM      8  C   LIG    1       -0.720  -6.572  -2.960  0.00  0.00    +0.250 C 
ENDBRANCH   4   7
BRANCH   1   9
ATOM      9  C   LIG    1        0.733  -0.582  -1.207  0.00  0.00    +0.030 C 
BRANCH   9  11
ATOM     10  C   LIG    1       -1.493  -0.247  -0.122  0.00  0.00    +0.010 C 
ATOM     11  C   LIG    1        0.019  -0.088   0.053  0.00  0.00    +0.000 C 
ENDBRANCH   9  11
BRANCH   9  12
ATOM     12  C   LIG    1        2.230  -0.292  -1.091  0.00  0.00    +0.000 C 
ATOM     13  C   LIG    1        2.926  -0.671  -2.399  0.00  0.00    +0.000 C 
ENDBRANCH   9  12
ENDBRANCH   1   9
TORSDOF 4
ENDMDL
MODEL      350
REMARK  Name = ZINC000005315905
REMARK                            x       y       z     vdW  Elec       q    Type
REMARK                         _______ _______ _______ _____ _____    ______ ____
ROOT
ATOM      1  C   LIG    1        0.831  -1.964   1.104  0.00  0.00    +0.170 A 
ATOM      2  C   LIG    1       -0.144  -2.777   1.679  0.00  0.00    -0.130 A 
ATOM      3  C   LIG    1        0.011  -4.134   1.675  0.00  0.00    +0.080 A 
ATOM      4  C   LIG    1        1.168  -4.669   1.079  0.00  0.00    -0.100 A 
ATOM      5  C   LIG    1        1.395  -6.054   1.036  0.00  0.00    +0.030 A 
ATOM      6  C   LIG    1        2.527  -6.532   0.451  0.00  0.00    +0.010 A 
ATOM      7  C   LIG    1        3.465  -5.665  -0.107  0.00  0.00    +0.030 A 
ATOM      8  C   LIG    1        3.277  -4.317  -0.083  0.00  0.00    +0.040 A 
ATOM      9  C   LIG    1        2.120  -3.785   0.512  0.00  0.00    +0.130 A 
ATOM     10  N   LIG    1        1.905  -2.466   0.546  0.00  0.00    -0.470 NA
ENDROOT
BRANCH   2  11
ATOM     11  C   LIG    1       -1.368  -2.159   2.305  0.00  0.00    +0.070 C 
ATOM     12  C   LIG    1       -2.432  -1.933   1.230  0.00  0.00    +0.030 C 
ENDBRANCH   2  11
BRANCH   1  13
ATOM     13  C   LIG    1        0.641  -0.469   1.119  0.00  0.00    +0.090 C 
BRANCH  13  15
ATOM     14  C   LIG    1        1.206   1.643   2.328  0.00  0.00    +0.030 C 
ATOM     15  C   LIG    1        1.313   0.118   2.362  0.00  0.00    +0.010 C 
ENDBRANCH  13  15
ENDBRANCH   1  13
TORSDOF 3
ENDMDL
MODEL      351
REMARK  Name = ZINC000034364013
REMARK                            x       y       z     vdW  Elec       q    Type
REMARK                         _______ _______ _______ _____ _____    ______ ____
ROOT
ATOM      1  C   LIG    1       -0.018   1.503   0.010  0.00  0.00    +0.090 C 
ATOM      2  C   LIG    1        0.002  -0.004   0.002  0.00  0.00    -0.030 A 
ATOM      3  C   LIG    1        0.006  -0.698  -1.227  0.00  0.00    -0.080 A 
ATOM      4  C   LIG    1       -0.008  -0.172  -2.583  0.00  0.00    -0.030 A 
ATOM      5  C   LIG    1        0.001  -1.087  -3.533  0.00  0.00    -0.010 A 
ATOM      6  S   LIG    1        0.026  -2.706  -2.861  0.00  0.00    +0.130 S 
ATOM      7 CL   LIG    1       -0.032   1.530  -2.925  0.00  0.00    -0.040 Cl
ATOM      8  C   LIG    1        0.025  -2.096  -1.212  0.00  0.00    -0.130 A 
ATOM      9  C   LIG    1        0.041  -2.776   0.010  0.00  0.00    +0.040 A 
ATOM     10  C   LIG    1        0.037  -2.074   1.192  0.00  0.00    +0.050 A 
ATOM     11  C   LIG    1        0.022  -0.686   1.180  0.00  0.00    +0.010 A 
ENDROOT
TORSDOF 0
ENDMDL
MODEL      352
REMARK  Name = ZINC000034408505
REMARK                            x       y       z     vdW  Elec       q    Type
REMARK                         _______ _______ _______ _____ _____    ______ ____
ROOT
ATOM      1  C   LIG    1        0.707  -0.490  -1.238  0.00  0.00    +0.090 A 
ATOM      2  C   LIG    1        2.036  -0.643  -1.359  0.00  0.00    -0.170 A 
ATOM      3  C   LIG    1        2.288  -1.133  -2.716  0.00  0.00    -0.090 A 
ATOM      4  C   LIG    1        3.442  -1.473  -3.425  0.00  0.00    +0.070 A 
ATOM      5  C   LIG    1        3.337  -1.913  -4.726  0.00  0.00    -0.060 A 
ATOM      6  C   LIG    1        2.092  -2.019  -5.333  0.00  0.00    +0.050 A 
ATOM      7  C   LIG    1        0.946  -1.686  -4.647  0.00  0.00    +0.010 A 
ATOM      8 CL   LIG    1        4.769  -2.338  -5.612  0.00  0.00    -0.070 Cl
ATOM      9  C   LIG    1        1.028  -1.240  -3.332  0.00  0.00    +0.100 A 
ATOM     10  C   LIG    1        3.070  -0.364  -0.299  0.00  0.00    +0.100 C 
ATOM     11  N   LIG    1        0.088  -0.846  -2.405  0.00  0.00    -0.590 N 
ATOM     12  H   LIG    1       -0.869  -0.824  -2.557  0.00  0.00    +0.420 HD
ENDROOT
BRANCH   1  14
ATOM     13  C   LIG    1       -0.019   1.526   0.010  0.00  0.00    +0.020 C 
ATOM     14  C   LIG    1        0.002  -0.004   0.002  0.00  0.00    +0.100 C 
ENDBRANCH   1  14
TORSDOF 1
ENDMDL
MODEL      353
REMARK  Name = ZINC000034414609
REMARK                            x       y       z     vdW  Elec       q    Type
REMARK                         _______ _______ _______ _____ _____    ______ ____
ROOT
ATOM      1  C   LIG    1       -2.067   0.024   1.401  0.00  0.00    -0.120 A 
ATOM      2  C   LIG    1       -1.580  -0.338   2.644  0.00  0.00    +0.050 A 
ATOM      3  C   LIG    1       -2.181   0.144   3.790  0.00  0.00    -0.080 A 
ATOM      4  C   LIG    1       -3.277   0.993   3.693  0.00  0.00    +0.210 A 
ATOM      5  C   LIG    1       -3.764   1.353   2.444  0.00  0.00    -0.080 A 
ATOM      6  C   LIG    1       -3.155   0.872   1.302  0.00  0.00    +0.050 A 
ENDROOT
BRANCH   4   7
ATOM      7  N   LIG    1       -3.887   1.482   4.851  0.00  0.00    -0.880 N 
ATOM      8  H   LIG    1       -4.652   2.074   4.782  0.00  0.00    +0.400 HD
ATOM      9  H   LIG    1       -3.546   1.230   5.723  0.00  0.00    +0.400 HD
ENDBRANCH   4   7
BRANCH   1  10
ATOM     10  C   LIG    1       -1.409  -0.504   0.153  0.00  0.00    -0.010 C 
BRANCH  10  12
ATOM     11  C   LIG    1        0.040   1.527   0.019  0.00  0.00    +0.010 C 
ATOM     12  C   LIG    1        0.035  -0.002   0.086  0.00  0.00    +0.020 C 
ENDBRANCH  10  12
BRANCH  10  13
ATOM     13  C   LIG    1       -1.415  -2.034   0.180  0.00  0.00    +0.020 C 
ATOM     14  C   LIG    1       -2.860  -2.537   0.206  0.00  0.00    +0.010 C 
ENDBRANCH  10  13
BRANCH  10  15
ATOM     15  C   LIG    1       -2.177  -0.013  -1.076  0.00  0.00    +0.020 C 
ATOM     16  C   LIG    1       -1.508  -0.549  -2.343  0.00  0.00    +0.010 C 
ENDBRANCH  10  15
ENDBRANCH   1  10
TORSDOF 5
ENDMDL
MODEL      354
REMARK  Name = ZINC000077011828
REMARK                            x       y       z     vdW  Elec       q    Type
REMARK                         _______ _______ _______ _____ _____    ______ ____
ROOT
ATOM      1  F   LIG    1        0.002  -0.004   0.002  0.00  0.00    -0.190 F 
ATOM      2  C   LIG    1       -0.017   1.395   0.010  0.00  0.00    +0.350 C 
ATOM      3  F   LIG    1        1.296   1.879  -0.000  0.00  0.00    -0.190 F 
ENDROOT
BRANCH   2   4
ATOM      4  C   LIG    1       -0.746   1.894  -1.211  0.00  0.00    -0.150 A 
ATOM      5  C   LIG    1       -0.398   3.107  -1.776  0.00  0.00    +0.040 A 
ATOM      6  C   LIG    1       -1.067   3.565  -2.896  0.00  0.00    +0.010 A 
ATOM      7  C   LIG    1       -2.083   2.810  -3.451  0.00  0.00    +0.030 A 
ATOM      8  C   LIG    1       -2.429   1.596  -2.887  0.00  0.00    +0.010 A 
ATOM      9  C   LIG    1       -1.758   1.136  -1.770  0.00  0.00    +0.040 A 
ENDBRANCH   2   4
BRANCH   2  10
ATOM     10  C   LIG    1       -0.733   1.888   1.268  0.00  0.00    -0.030 C 
ATOM     11  C   LIG    1       -1.860   0.955   1.742  0.00  0.00    +0.040 C 
ATOM     12  C   LIG    1       -1.382   1.234   3.176  0.00  0.00    +0.020 C 
ATOM     13  C   LIG    1        0.001   1.535   2.573  0.00  0.00    +0.040 C 
ENDBRANCH   2  10
TORSDOF 2
ENDMDL
MODEL      355
REMARK  Name = ZINC000080223459
REMARK                            x       y       z     vdW  Elec       q    Type
REMARK                         _______ _______ _______ _____ _____    ______ ____
ROOT
ATOM      1  C   LIG    1       -0.018   1.503   0.010  0.00  0.00    +0.100 C 
ATOM      2  C   LIG    1        0.002  -0.004   0.002  0.00  0.00    -0.010 C 
ATOM      3  C   LIG    1       -1.161  -0.697   0.009  0.00  0.00    -0.130 C 
ATOM      4  C   LIG    1       -1.329  -2.163   0.010  0.00  0.00    -0.010 C 
ATOM      5  C   LIG    1       -2.656  -2.407   0.019  0.00  0.00    -0.010 C 
ATOM      6  C   LIG    1       -3.377  -1.197   0.025  0.00  0.00    -0.090 C 
ATOM      7  C   LIG    1       -2.530  -0.147   0.025  0.00  0.00    -0.020 C 
ATOM      8  C   LIG    1        1.317  -0.740  -0.015  0.00  0.00    +0.090 C 
ENDROOT
BRANCH   6   9
ATOM      9  C   LIG    1       -4.880  -1.091   0.036  0.00  0.00    -0.020 C 
ATOM     10  C   LIG    1       -5.431  -1.775   1.289  0.00  0.00    +0.030 C 
ATOM     11  C   LIG    1       -5.449  -1.773  -1.209  0.00  0.00    +0.030 C 
ATOM     12  C   LIG    1       -5.287   0.384   0.041  0.00  0.00    +0.040 C 
ENDBRANCH   6   9
TORSDOF 1
ENDMDL
MODEL      356
REMARK  Name = ZINC000034618931
REMARK                            x       y       z     vdW  Elec       q    Type
REMARK                         _______ _______ _______ _____ _____    ______ ____
ROOT
ATOM      1  C   LIG    1       -0.166   1.529   0.581  0.00  0.00    +0.030 C 
ATOM      2  C   LIG    1       -0.131   0.006   0.459  0.00  0.00    -0.050 C 
ATOM      3  C   LIG    1        0.101  -0.387  -1.000  0.00  0.00    +0.010 C 
ATOM      4  C   LIG    1        1.554  -0.168  -1.411  0.00  0.00    +0.010 C 
ATOM      5  C   LIG    1        2.461  -1.010  -0.516  0.00  0.00    +0.010 C 
ATOM      6  C   LIG    1        2.329  -0.549   0.940  0.00  0.00    -0.050 C 
ATOM      7  C   LIG    1        3.174  -1.501   1.806  0.00  0.00    +0.040 C 
ATOM      8  C   LIG    1        3.109  -1.094   3.276  0.00  0.00    +0.020 C 
ATOM      9  C   LIG    1        1.670  -0.927   3.701  0.00  0.00    +0.360 C 
ATOM     10  C   LIG    1        0.743  -0.110   2.823  0.00  0.00    +0.020 C 
ATOM     11  O   LIG    1        1.260  -1.432   4.720  0.00  0.00    -0.460 OA
ATOM     12  C   LIG    1        2.908   0.859   1.077  0.00  0.00    +0.040 C 
ATOM     13  C   LIG    1       -1.536  -0.516   0.839  0.00  0.00    +0.020 C 
ATOM     14  C   LIG    1        0.880  -0.632   1.390  0.00  0.00    +0.010 C 
ENDROOT
TORSDOF 0
ENDMDL
MODEL      357
REMARK  Name = ZINC000034638583
REMARK                            x       y       z     vdW  Elec       q    Type
REMARK                         _______ _______ _______ _____ _____    ______ ____
ROOT
ATOM      1  C   LIG    1       -0.018   1.503   0.010  0.00  0.00    +0.080 C 
ATOM      2  C   LIG    1        0.002  -0.004   0.002  0.00  0.00    -0.040 A 
ATOM      3  C   LIG    1        0.006  -0.687  -1.198  0.00  0.00    -0.080 A 
ATOM      4  C   LIG    1        0.025  -2.076  -1.205  0.00  0.00    +0.220 A 
ATOM      5  C   LIG    1        0.040  -2.773  -0.004  0.00  0.00    -0.080 A 
ATOM      6  C   LIG    1        0.036  -2.084   1.193  0.00  0.00    -0.040 A 
ATOM      7  C   LIG    1        0.052  -2.839   2.497  0.00  0.00    +0.080 C 
ATOM      8  C   LIG    1        0.023  -0.701   1.196  0.00  0.00    -0.060 A 
ENDROOT
BRANCH   4   9
ATOM      9  N   LIG    1        0.029  -2.770  -2.417  0.00  0.00    -0.750 N 
ATOM     10  H   LIG    1        0.018  -2.282  -3.255  0.00  0.00    +0.400 HD
BRANCH   9  11
ATOM     11  C   LIG    1        0.049  -4.235  -2.422  0.00  0.00    +0.260 C 
BRANCH  11  12
ATOM     12  C   LIG    1        0.049  -4.740  -3.866  0.00  0.00    -0.080 C 
ATOM     13  C   LIG    1       -1.210  -4.245  -4.580  0.00  0.00    +0.030 C 
ATOM     14  C   LIG    1        0.070  -6.270  -3.872  0.00  0.00    +0.040 C 
ATOM     15  C   LIG    1        1.288  -4.211  -4.591  0.00  0.00    +0.030 C 
ENDBRANCH  11  12
ENDBRANCH   9  11
ENDBRANCH   4   9
TORSDOF 3
ENDMDL
MODEL      358
REMARK  Name = ZINC000095627044
REMARK                            x       y       z     vdW  Elec       q    Type
REMARK                         _______ _______ _______ _____ _____    ______ ____
ROOT
ATOM      1  C   LIG    1       -2.766   1.464  -0.836  0.00  0.00    -0.130 A 
ATOM      2  C   LIG    1       -2.685   0.290  -0.098  0.00  0.00    +0.070 A 
ATOM      3  C   LIG    1       -3.763  -0.572  -0.054  0.00  0.00    +0.000 A 
ATOM      4  C   LIG    1       -4.922  -0.268  -0.744  0.00  0.00    +0.040 A 
ATOM      5  C   LIG    1       -5.006   0.900  -1.480  0.00  0.00    +0.000 A 
ATOM      6  C   LIG    1       -3.934   1.770  -1.523  0.00  0.00    +0.070 A 
ENDROOT
BRANCH   1   7
ATOM      7  S   LIG    1       -1.393   2.568  -0.894  0.00  0.00    -0.050 S 
BRANCH   7   9
ATOM      8 CL   LIG    1       -1.275   1.025  -3.534  0.00  0.00    -0.110 Cl
ATOM      9  C   LIG    1       -0.373   1.880  -2.228  0.00  0.00    -0.070 C 
ATOM     10  C   LIG    1        1.009   1.342  -1.855  0.00  0.00    +0.090 C 
ATOM     11  C   LIG    1        0.883   2.656  -2.628  0.00  0.00    +0.110 C 
ENDBRANCH   7   9
ENDBRANCH   1   7
TORSDOF 2
ENDMDL
MODEL      359
REMARK  Name = ZINC000095611639
REMARK                            x       y       z     vdW  Elec       q    Type
REMARK                         _______ _______ _______ _____ _____    ______ ____
ROOT
ATOM      1  C   LIG    1       -3.562  -2.127  -0.077  0.00  0.00    -0.090 A 
ATOM      2  C   LIG    1       -2.621  -2.824   0.687  0.00  0.00    +0.100 A 
ATOM      3  C   LIG    1       -2.613  -4.202   0.675  0.00  0.00    -0.010 A 
ATOM      4  C   LIG    1       -3.533  -4.899  -0.092  0.00  0.00    +0.130 A 
ATOM      5  C   LIG    1       -4.469  -4.216  -0.853  0.00  0.00    -0.040 A 
ATOM      6  F   LIG    1       -3.518  -6.250  -0.098  0.00  0.00    -0.130 F 
ATOM      7  C   LIG    1       -4.493  -2.836  -0.846  0.00  0.00    +0.140 A 
ATOM      8  F   LIG    1       -5.406  -2.171  -1.588  0.00  0.00    -0.130 F 
ENDROOT
BRANCH   1  10
ATOM      9  C   LIG    1       -2.418   0.030  -0.048  0.00  0.00    +0.040 C 
ATOM     10  C   LIG    1       -3.577  -0.655  -0.069  0.00  0.00    +0.010 C 
BRANCH   9  13
ATOM     11  C   LIG    1       -0.004   1.457   0.236  0.00  0.00    +0.070 C 
ATOM     12  C   LIG    1        0.005  -0.020  -0.064  0.00  0.00    -0.100 C 
ATOM     13  C   LIG    1       -1.144  -0.680  -0.196  0.00  0.00    -0.050 C 
ATOM     14  C   LIG    1        1.315  -0.750  -0.216  0.00  0.00    +0.090 C 
ENDBRANCH   9  13
ENDBRANCH   1  10
TORSDOF 2
ENDMDL
MODEL      360
REMARK  Name = ZINC000095611652
REMARK                            x       y       z     vdW  Elec       q    Type
REMARK                         _______ _______ _______ _____ _____    ______ ____
ROOT
ATOM      1  C   LIG    1        0.270  -4.136  -2.318  0.00  0.00    +0.000 C 
ATOM      2  C   LIG    1       -0.225  -4.812  -3.376  0.00  0.00    +0.000 C 
ENDROOT
BRANCH   2   3
ATOM      3  C   LIG    1       -0.782  -4.081  -4.517  0.00  0.00    -0.030 C 
ATOM      4  C   LIG    1       -1.270  -4.748  -5.562  0.00  0.00    -0.120 C 
ATOM      5  C   LIG    1       -1.843  -3.996  -6.735  0.00  0.00    +0.080 C 
ATOM      6  C   LIG    1       -1.250  -6.255  -5.570  0.00  0.00    +0.080 C 
ENDBRANCH   2   3
BRANCH   1   8
ATOM      7  C   LIG    1        0.739  -2.004  -1.265  0.00  0.00    -0.030 C 
ATOM      8  C   LIG    1        0.250  -2.672  -2.310  0.00  0.00    -0.030 C 
BRANCH   7   9
ATOM      9  C   LIG    1        0.718  -0.497  -1.257  0.00  0.00    +0.050 C 
BRANCH   9  11
ATOM     10  C   LIG    1       -0.019   1.526   0.010  0.00  0.00    +0.010 C 
ATOM     11  C   LIG    1        0.002  -0.004   0.002  0.00  0.00    +0.000 C 
ENDBRANCH   9  11
ENDBRANCH   7   9
ENDBRANCH   1   8
TORSDOF 4
ENDMDL
MODEL      361
REMARK  Name = ZINC000095611759
REMARK                            x       y       z     vdW  Elec       q    Type
REMARK                         _______ _______ _______ _____ _____    ______ ____
ROOT
ATOM      1  C   LIG    1       -3.558  -2.131   0.025  0.00  0.00    -0.120 A 
ATOM      2  C   LIG    1       -2.775  -2.820  -0.910  0.00  0.00    +0.130 A 
ATOM      3  C   LIG    1       -2.762  -4.201  -0.910  0.00  0.00    -0.020 A 
ATOM      4  C   LIG    1       -3.520  -4.904   0.010  0.00  0.00    +0.090 A 
ATOM      5  C   LIG    1       -4.296  -4.232   0.937  0.00  0.00    -0.020 A 
ATOM      6  F   LIG    1       -2.034  -2.135  -1.808  0.00  0.00    -0.120 F 
ATOM      7  C   LIG    1       -4.317  -2.851   0.955  0.00  0.00    +0.130 A 
ATOM      8  F   LIG    1       -5.076  -2.196   1.861  0.00  0.00    -0.130 F 
ENDROOT
BRANCH   1  10
ATOM      9  C   LIG    1       -2.422   0.030   0.025  0.00  0.00    +0.050 C 
ATOM     10  C   LIG    1       -3.578  -0.659   0.033  0.00  0.00    -0.010 C 
BRANCH   9  13
ATOM     11  C   LIG    1       -0.018   1.503   0.010  0.00  0.00    +0.080 C 
ATOM     12  C   LIG    1        0.002  -0.004   0.002  0.00  0.00    -0.100 C 
ATOM     13  C   LIG    1       -1.143  -0.686   0.009  0.00  0.00    -0.050 C 
ATOM     14  C   LIG    1        1.317  -0.740  -0.015  0.00  0.00    +0.080 C 
ENDBRANCH   9  13
ENDBRANCH   1  10
TORSDOF 2
ENDMDL
MODEL      362
REMARK  Name = ZINC000095611683
REMARK                            x       y       z     vdW  Elec       q    Type
REMARK                         _______ _______ _______ _____ _____    ______ ____
ROOT
ATOM      1  C   LIG    1        0.098  -2.058  -3.601  0.00  0.00    -0.060 A 
ATOM      2  C   LIG    1       -0.665  -2.779  -2.678  0.00  0.00    +0.060 A 
ATOM      3  C   LIG    1       -0.642  -4.157  -2.696  0.00  0.00    -0.020 A 
ATOM      4  C   LIG    1        0.135  -4.828  -3.626  0.00  0.00    +0.100 A 
ATOM      5  C   LIG    1        0.894  -4.120  -4.545  0.00  0.00    -0.010 A 
ATOM      6  F   LIG    1        0.153  -6.179  -3.639  0.00  0.00    -0.140 F 
ATOM      7  C   LIG    1        0.875  -2.741  -4.541  0.00  0.00    +0.060 A 
ENDROOT
BRANCH   1   9
ATOM      8  C   LIG    1        0.054   0.077  -2.417  0.00  0.00    +0.010 C 
ATOM      9  C   LIG    1        0.078  -0.586  -3.588  0.00  0.00    +0.010 C 
BRANCH   8  12
ATOM     10  C   LIG    1       -0.236   1.460   0.022  0.00  0.00    +0.070 C 
ATOM     11  C   LIG    1        0.044  -0.020   0.005  0.00  0.00    -0.110 C 
ATOM     12  C   LIG    1        0.178  -0.660  -1.156  0.00  0.00    -0.040 C 
ATOM     13  C   LIG    1        0.172  -0.778   1.302  0.00  0.00    +0.080 C 
ENDBRANCH   8  12
ENDBRANCH   1   9
TORSDOF 2
ENDMDL
MODEL      363
REMARK  Name = ZINC000095611676
REMARK                            x       y       z     vdW  Elec       q    Type
REMARK                         _______ _______ _______ _____ _____    ______ ____
ROOT
ATOM      1  C   LIG    1       -0.403  -1.914  -3.421  0.00  0.00    +0.110 C 
ENDROOT
BRANCH   1   2
ATOM      2  C   LIG    1        0.108  -2.522  -4.702  0.00  0.00    -0.080 A 
ATOM      3  C   LIG    1        1.281  -2.057  -5.268  0.00  0.00    +0.000 A 
ATOM      4  C   LIG    1        1.750  -2.615  -6.442  0.00  0.00    +0.000 A 
ATOM      5  C   LIG    1        1.047  -3.637  -7.051  0.00  0.00    -0.010 A 
ATOM      6  C   LIG    1       -0.125  -4.103  -6.485  0.00  0.00    +0.000 A 
ATOM      7  C   LIG    1       -0.592  -3.548  -5.308  0.00  0.00    +0.000 A 
ENDBRANCH   1   2
BRANCH   1   9
ATOM      8  C   LIG    1        0.802  -2.011  -1.300  0.00  0.00    -0.050 C 
ATOM      9  C   LIG    1        0.171  -2.662  -2.246  0.00  0.00    -0.040 C 
BRANCH   8  10
ATOM     10  C   LIG    1        0.808  -0.504  -1.298  0.00  0.00    +0.050 C 
BRANCH  10  12
ATOM     11  C   LIG    1        0.352   1.536   0.072  0.00  0.00    +0.000 C 
ATOM     12  C   LIG    1        0.346   0.006   0.069  0.00  0.00    +0.000 C 
ENDBRANCH  10  12
ENDBRANCH   8  10
ENDBRANCH   1   9
TORSDOF 4
ENDMDL
MODEL      364
REMARK  Name = ZINC000095611761
REMARK                            x       y       z     vdW  Elec       q    Type
REMARK                         _______ _______ _______ _____ _____    ______ ____
ROOT
ATOM      1  C   LIG    1        0.098  -2.058  -3.602  0.00  0.00    -0.090 A 
ATOM      2  C   LIG    1       -0.660  -2.779  -2.675  0.00  0.00    +0.060 A 
ATOM      3  C   LIG    1       -0.637  -4.158  -2.693  0.00  0.00    +0.000 A 
ATOM      4  C   LIG    1        0.135  -4.829  -3.626  0.00  0.00    +0.040 A 
ATOM      5  C   LIG    1        0.889  -4.124  -4.547  0.00  0.00    -0.010 A 
ATOM      6  C   LIG    1        0.872  -2.743  -4.546  0.00  0.00    +0.100 A 
ATOM      7  F   LIG    1        1.608  -2.055  -5.446  0.00  0.00    -0.140 F 
ENDROOT
BRANCH   1   9
ATOM      8  C   LIG    1        0.051   0.077  -2.417  0.00  0.00    +0.030 C 
ATOM      9  C   LIG    1        0.078  -0.586  -3.588  0.00  0.00    +0.010 C 
BRANCH   8  12
ATOM     10  C   LIG    1       -0.246   1.455   0.024  0.00  0.00    +0.080 C 
ATOM     11  C   LIG    1        0.067  -0.019   0.005  0.00  0.00    -0.110 C 
ATOM     12  C   LIG    1        0.204  -0.656  -1.157  0.00  0.00    -0.040 C 
ATOM     13  C   LIG    1        0.224  -0.773   1.300  0.00  0.00    +0.080 C 
ENDBRANCH   8  12
ENDBRANCH   1   9
TORSDOF 2
ENDMDL
MODEL      365
REMARK  Name = ZINC000095611641
REMARK                            x       y       z     vdW  Elec       q    Type
REMARK                         _______ _______ _______ _____ _____    ______ ____
ROOT
ATOM      1  C   LIG    1       -2.129  -0.145  -1.265  0.00  0.00    -0.030 C 
ATOM      2  C   LIG    1       -3.271   0.533  -1.222  0.00  0.00    -0.020 C 
ENDROOT
BRANCH   2   3
ATOM      3  C   LIG    1       -3.809   0.984   0.071  0.00  0.00    -0.030 C 
ATOM      4  C   LIG    1       -5.002   1.567   0.127  0.00  0.00    -0.120 C 
ATOM      5  C   LIG    1       -5.554   2.029   1.451  0.00  0.00    +0.070 C 
ATOM      6  C   LIG    1       -5.804   1.765  -1.134  0.00  0.00    +0.080 C 
ENDBRANCH   2   3
BRANCH   1   7
ATOM      7  C   LIG    1       -1.452  -0.563   0.014  0.00  0.00    +0.010 C 
BRANCH   7   9
ATOM      8  C   LIG    1       -0.022   1.485   0.050  0.00  0.00    +0.010 C 
ATOM      9  C   LIG    1       -0.012  -0.045   0.022  0.00  0.00    +0.010 C 
ENDBRANCH   7   9
BRANCH   7  10
ATOM     10  C   LIG    1       -1.444  -2.090   0.112  0.00  0.00    +0.010 C 
ATOM     11  C   LIG    1       -0.869  -2.512   1.466  0.00  0.00    +0.000 C 
ENDBRANCH   7  10
ENDBRANCH   1   7
TORSDOF 4
ENDMDL
MODEL      366
REMARK  Name = ZINC000095611640
REMARK                            x       y       z     vdW  Elec       q    Type
REMARK                         _______ _______ _______ _____ _____    ______ ____
ROOT
ATOM      1  C   LIG    1        0.098  -2.058  -3.601  0.00  0.00    -0.060 A 
ATOM      2  C   LIG    1       -0.660  -2.779  -2.675  0.00  0.00    +0.020 A 
ATOM      3  C   LIG    1       -0.636  -4.158  -2.693  0.00  0.00    -0.010 A 
ATOM      4  C   LIG    1        0.136  -4.828  -3.625  0.00  0.00    +0.000 A 
ATOM      5  C   LIG    1        0.889  -4.121  -4.546  0.00  0.00    +0.000 A 
ATOM      6  C   LIG    1        0.871  -2.742  -4.544  0.00  0.00    -0.080 A 
ATOM      7  C   LIG    1        1.691  -1.974  -5.548  0.00  0.00    +0.090 C 
ENDROOT
BRANCH   1   9
ATOM      8  C   LIG    1        0.054   0.077  -2.417  0.00  0.00    +0.010 C 
ATOM      9  C   LIG    1        0.078  -0.586  -3.588  0.00  0.00    +0.000 C 
BRANCH   8  12
ATOM     10  C   LIG    1       -0.239   1.455   0.024  0.00  0.00    +0.070 C 
ATOM     11  C   LIG    1        0.073  -0.019   0.005  0.00  0.00    -0.110 C 
ATOM     12  C   LIG    1        0.208  -0.656  -1.157  0.00  0.00    -0.040 C 
ATOM     13  C   LIG    1        0.232  -0.773   1.300  0.00  0.00    +0.080 C 
ENDBRANCH   8  12
ENDBRANCH   1   9
TORSDOF 2
ENDMDL
MODEL      367
REMARK  Name = ZINC000001688163
REMARK                            x       y       z     vdW  Elec       q    Type
REMARK                         _______ _______ _______ _____ _____    ______ ____
ROOT
ATOM      1  C   LIG    1       -0.016   1.334   0.009  0.00  0.00    +0.060 C 
ATOM      2  C   LIG    1        0.002  -0.004   0.002  0.00  0.00    -0.060 C 
ENDROOT
BRANCH   2   3
ATOM      3  C   LIG    1        1.296  -0.728  -0.014  0.00  0.00    -0.050 A 
ATOM      4  C   LIG    1        1.650  -1.504  -1.117  0.00  0.00    +0.020 A 
ATOM      5  C   LIG    1        2.856  -2.175  -1.127  0.00  0.00    +0.000 A 
ATOM      6  C   LIG    1        3.713  -2.079  -0.045  0.00  0.00    +0.000 A 
ATOM      7  C   LIG    1        3.367  -1.311   1.052  0.00  0.00    +0.000 A 
ATOM      8  C   LIG    1        2.166  -0.631   1.071  0.00  0.00    +0.010 A 
ENDBRANCH   2   3
BRANCH   2   9
ATOM      9  C   LIG    1       -1.272  -0.763   0.010  0.00  0.00    -0.050 A 
ATOM     10  C   LIG    1       -1.605  -1.560   1.104  0.00  0.00    +0.020 A 
ATOM     11  C   LIG    1       -2.792  -2.264   1.106  0.00  0.00    +0.000 A 
ATOM     12  C   LIG    1       -3.651  -2.179   0.026  0.00  0.00    +0.000 A 
ATOM     13  C   LIG    1       -3.326  -1.390  -1.063  0.00  0.00    +0.000 A 
ATOM     14  C   LIG    1       -2.144  -0.677  -1.074  0.00  0.00    +0.010 A 
ENDBRANCH   2   9
TORSDOF 2
ENDMDL
MODEL      368
REMARK  Name = ZINC000083316744
REMARK                            x       y       z     vdW  Elec       q    Type
REMARK                         _______ _______ _______ _____ _____    ______ ____
ROOT
ATOM      1  C   LIG    1        0.040  -2.817  -0.013  0.00  0.00    -0.020 C 
ATOM      2  C   LIG    1        0.058  -4.150  -0.021  0.00  0.00    -0.030 C 
ENDROOT
BRANCH   1   4
ATOM      3  C   LIG    1        1.280  -0.719  -0.014  0.00  0.00    -0.010 C 
ATOM      4  C   LIG    1        1.299  -2.068  -0.021  0.00  0.00    +0.000 C 
BRANCH   3   6
ATOM      5  C   LIG    1       -0.016   1.329   0.009  0.00  0.00    +0.020 C 
ATOM      6  C   LIG    1        0.002  -0.004   0.002  0.00  0.00    -0.020 C 
ENDBRANCH   3   6
ENDBRANCH   1   4
BRANCH   2   7
ATOM      7  C   LIG    1       -1.236  -4.921  -0.013  0.00  0.00    +0.050 C 
BRANCH   7   8
ATOM      8  C   LIG    1       -1.262  -5.887  -1.199  0.00  0.00    +0.000 C 
BRANCH   8   9
ATOM      9  C   LIG    1       -2.577  -6.670  -1.191  0.00  0.00    +0.000 C 
BRANCH   9  10
ATOM     10  C   LIG    1       -2.603  -7.635  -2.377  0.00  0.00    -0.010 C 
ATOM     11  C   LIG    1       -3.917  -8.418  -2.369  0.00  0.00    +0.000 C 
ENDBRANCH   9  10
ENDBRANCH   8   9
ENDBRANCH   7   8
ENDBRANCH   2   7
TORSDOF 6
ENDMDL
MODEL      369
REMARK  Name = ZINC000098175100
REMARK                            x       y       z     vdW  Elec       q    Type
REMARK                         _______ _______ _______ _____ _____    ______ ____
ROOT
ATOM      1  C   LIG    1       -0.022   0.080  -2.422  0.00  0.00    -0.020 C 
ATOM      2  C   LIG    1       -0.024  -0.578  -3.576  0.00  0.00    -0.030 C 
ENDROOT
BRANCH   1   5
ATOM      3  C   LIG    1       -0.018   1.503   0.010  0.00  0.00    +0.080 C 
ATOM      4  C   LIG    1        0.002  -0.004   0.002  0.00  0.00    -0.120 C 
ATOM      5  C   LIG    1        0.000  -0.662  -1.152  0.00  0.00    -0.030 C 
ATOM      6  C   LIG    1        0.025  -0.764   1.303  0.00  0.00    +0.070 C 
ENDBRANCH   1   5
BRANCH   2   7
ATOM      7  C   LIG    1       -0.047   0.182  -4.877  0.00  0.00    -0.040 C 
ATOM      8  C   LIG    1       -1.298  -0.200  -5.670  0.00  0.00    +0.040 C 
ATOM      9  C   LIG    1        1.200  -0.166  -5.694  0.00  0.00    +0.040 C 
ATOM     10  C   LIG    1       -0.064   1.685  -4.590  0.00  0.00    +0.030 C 
ENDBRANCH   2   7
TORSDOF 2
ENDMDL
MODEL      370
REMARK  Name = ZINC000002560655
REMARK                            x       y       z     vdW  Elec       q    Type
REMARK                         _______ _______ _______ _____ _____    ______ ____
ROOT
ATOM      1  C   LIG    1        2.577  -2.783  -0.037  0.00  0.00    -0.030 C 
ATOM      2  C   LIG    1        2.595  -4.116  -0.045  0.00  0.00    -0.030 C 
ENDROOT
BRANCH   1   4
ATOM      3  C   LIG    1        1.280  -0.719  -0.014  0.00  0.00    -0.020 C 
ATOM      4  C   LIG    1        1.299  -2.068  -0.021  0.00  0.00    -0.010 C 
BRANCH   3   6
ATOM      5  C   LIG    1       -0.016   1.329   0.009  0.00  0.00    +0.020 C 
ATOM      6  C   LIG    1        0.002  -0.004   0.002  0.00  0.00    -0.020 C 
ENDBRANCH   3   6
ENDBRANCH   1   4
BRANCH   2   7
ATOM      7  C   LIG    1        3.910  -4.851  -0.061  0.00  0.00    +0.050 C 
BRANCH   7   8
ATOM      8  C   LIG    1        3.962  -5.829   1.115  0.00  0.00    +0.000 C 
BRANCH   8   9
ATOM      9  C   LIG    1        5.298  -6.576   1.098  0.00  0.00    +0.000 C 
BRANCH   9  10
ATOM     10  C   LIG    1        5.350  -7.553   2.274  0.00  0.00    -0.010 C 
ATOM     11  C   LIG    1        6.685  -8.300   2.257  0.00  0.00    +0.000 C 
ENDBRANCH   9  10
ENDBRANCH   8   9
ENDBRANCH   7   8
ENDBRANCH   2   7
TORSDOF 6
ENDMDL
MODEL      371
REMARK  Name = ZINC000003851356
REMARK                            x       y       z     vdW  Elec       q    Type
REMARK                         _______ _______ _______ _____ _____    ______ ____
ROOT
ATOM      1  C   LIG    1       -0.016   1.303   0.009  0.00  0.00    +0.100 C 
ATOM      2  C   LIG    1        0.002  -0.004   0.002  0.00  0.00    -0.170 C 
ATOM      3  C   LIG    1        0.020  -1.311  -0.005  0.00  0.00    -0.120 C 
ENDROOT
BRANCH   3   4
ATOM      4  C   LIG    1        0.043  -2.071   1.296  0.00  0.00    +0.260 C 
BRANCH   4   5
ATOM      5  O   LIG    1       -1.213  -2.727   1.486  0.00  0.00    -0.550 OA
ATOM      6  H   LIG    1       -1.969  -2.125   1.520  0.00  0.00    +0.380 HD
ENDBRANCH   4   5
BRANCH   4   7
ATOM      7  C   LIG    1        0.291  -1.099   2.451  0.00  0.00    -0.010 C 
BRANCH   7   8
ATOM      8  C   LIG    1        0.438  -1.884   3.756  0.00  0.00    +0.010 C 
ATOM      9  C   LIG    1        0.686  -0.912   4.910  0.00  0.00    +0.010 C 
ENDBRANCH   7   8
ENDBRANCH   4   7
ENDBRANCH   3   4
BRANCH   3  10
ATOM     10  C   LIG    1        0.018  -2.057  -1.314  0.00  0.00    +0.090 C 
BRANCH  10  11
ATOM     11  C   LIG    1       -0.007  -1.057  -2.472  0.00  0.00    +0.000 C 
BRANCH  11  12
ATOM     12  C   LIG    1       -0.009  -1.815  -3.801  0.00  0.00    +0.000 C 
BRANCH  12  13
ATOM     13  C   LIG    1       -0.034  -0.814  -4.958  0.00  0.00    +0.000 C 
BRANCH  13  14
ATOM     14  C   LIG    1       -0.036  -1.572  -6.287  0.00  0.00    -0.010 C 
ATOM     15  C   LIG    1       -0.061  -0.572  -7.445  0.00  0.00    +0.000 C 
ENDBRANCH  13  14
ENDBRANCH  12  13
ENDBRANCH  11  12
ENDBRANCH  10  11
ENDBRANCH   3  10
TORSDOF 9
ENDMDL
MODEL      372
REMARK  Name = ZINC000067738097
REMARK                            x       y       z     vdW  Elec       q    Type
REMARK                         _______ _______ _______ _____ _____    ______ ____
ROOT
ATOM      1  C   LIG    1       -0.016   1.337   0.009  0.00  0.00    +0.120 C 
ATOM      2  C   LIG    1        0.002  -0.004   0.002  0.00  0.00    -0.060 C 
ATOM      3  C   LIG    1       -1.177  -0.902   0.002  0.00  0.00    -0.060 A 
ATOM      4  C   LIG    1       -2.545  -0.652   0.009  0.00  0.00    +0.040 A 
ATOM      5  C   LIG    1       -3.438  -1.706   0.006  0.00  0.00    +0.020 A 
ATOM      6  C   LIG    1       -2.978  -3.011  -0.002  0.00  0.00    +0.010 A 
ATOM      7  C   LIG    1       -1.623  -3.277  -0.008  0.00  0.00    +0.040 A 
ATOM      8  C   LIG    1       -0.708  -2.226  -0.007  0.00  0.00    -0.050 A 
ATOM      9  C   LIG    1        0.772  -2.206  -0.012  0.00  0.00    -0.050 A 
ATOM     10  C   LIG    1        1.716  -3.231  -0.020  0.00  0.00    +0.040 A 
ATOM     11  C   LIG    1        3.062  -2.929  -0.024  0.00  0.00    +0.010 A 
ATOM     12  C   LIG    1        3.487  -1.611  -0.019  0.00  0.00    +0.020 A 
ATOM     13  C   LIG    1        2.566  -0.583  -0.010  0.00  0.00    +0.040 A 
ATOM     14  C   LIG    1        1.205  -0.870  -0.014  0.00  0.00    -0.060 A 
ENDROOT
TORSDOF 0
ENDMDL
MODEL      373
REMARK  Name = ZINC000003851360
REMARK                            x       y       z     vdW  Elec       q    Type
REMARK                         _______ _______ _______ _____ _____    ______ ____
ROOT
ATOM      1  C   LIG    1       -0.016   1.303   0.009  0.00  0.00    +0.100 C 
ATOM      2  C   LIG    1        0.002  -0.004   0.002  0.00  0.00    -0.170 C 
ATOM      3  C   LIG    1        0.020  -1.311  -0.005  0.00  0.00    -0.120 C 
ENDROOT
BRANCH   3   4
ATOM      4  C   LIG    1        0.043  -2.071   1.296  0.00  0.00    +0.260 C 
BRANCH   4   5
ATOM      5  O   LIG    1        1.319  -2.692   1.462  0.00  0.00    -0.550 OA
ATOM      6  H   LIG    1        2.059  -2.071   1.482  0.00  0.00    +0.380 HD
ENDBRANCH   4   5
BRANCH   4   7
ATOM      7  C   LIG    1       -0.210  -1.106   2.455  0.00  0.00    -0.010 C 
BRANCH   7   8
ATOM      8  C   LIG    1       -0.311  -1.894   3.763  0.00  0.00    +0.010 C 
ATOM      9  C   LIG    1       -0.564  -0.929   4.922  0.00  0.00    +0.010 C 
ENDBRANCH   7   8
ENDBRANCH   4   7
ENDBRANCH   3   4
BRANCH   3  10
ATOM     10  C   LIG    1        0.018  -2.057  -1.314  0.00  0.00    +0.090 C 
BRANCH  10  11
ATOM     11  C   LIG    1       -0.007  -1.057  -2.472  0.00  0.00    +0.000 C 
BRANCH  11  12
ATOM     12  C   LIG    1       -0.009  -1.815  -3.801  0.00  0.00    +0.000 C 
BRANCH  12  13
ATOM     13  C   LIG    1       -0.034  -0.814  -4.958  0.00  0.00    +0.000 C 
BRANCH  13  14
ATOM     14  C   LIG    1       -0.036  -1.572  -6.287  0.00  0.00    -0.010 C 
ATOM     15  C   LIG    1       -0.061  -0.572  -7.445  0.00  0.00    +0.000 C 
ENDBRANCH  13  14
ENDBRANCH  12  13
ENDBRANCH  11  12
ENDBRANCH  10  11
ENDBRANCH   3  10
TORSDOF 9
ENDMDL
MODEL      374
REMARK  Name = ZINC000113993679
REMARK                            x       y       z     vdW  Elec       q    Type
REMARK                         _______ _______ _______ _____ _____    ______ ____
ROOT
ATOM      1 CL   LIG    1        0.002  -0.004   0.002  0.00  0.00    -0.070 Cl
ATOM      2  C   LIG    1       -0.021   1.732   0.012  0.00  0.00    -0.040 A 
ATOM      3  C   LIG    1       -1.231   2.405   0.033  0.00  0.00    +0.030 A 
ATOM      4  C   LIG    1       -1.256   3.784   0.040  0.00  0.00    +0.030 A 
ATOM      5  C   LIG    1       -0.059   4.501   0.027  0.00  0.00    -0.030 A 
ATOM      6  C   LIG    1        1.157   3.817   0.007  0.00  0.00    +0.030 A 
ATOM      7  C   LIG    1        1.170   2.438   0.004  0.00  0.00    +0.030 A 
ENDROOT
BRANCH   5   8
ATOM      8  C   LIG    1       -0.079   5.979   0.036  0.00  0.00    -0.110 C 
ATOM      9  C   LIG    1       -0.530   6.717   1.035  0.00  0.00    -0.010 C 
ATOM     10  C   LIG    1       -0.404   8.189   0.716  0.00  0.00    +0.050 C 
ATOM     11  C   LIG    1        0.587   8.252  -0.469  0.00  0.00    +0.020 C 
ATOM     12  C   LIG    1        0.419   6.850  -1.094  0.00  0.00    +0.060 C 
ENDBRANCH   5   8
TORSDOF 1
ENDMDL
MODEL      375
REMARK  Name = ZINC000036940515
REMARK                            x       y       z     vdW  Elec       q    Type
REMARK                         _______ _______ _______ _____ _____    ______ ____
ROOT
ATOM      1  C   LIG    1        1.476  -4.028  -2.532  0.00  0.00    +0.400 C 
ATOM      2  O   LIG    1        0.967  -4.646  -1.621  0.00  0.00    -0.450 OA
ENDROOT
BRANCH   1   3
ATOM      3  C   LIG    1        2.111  -4.748  -3.645  0.00  0.00    -0.180 A 
ATOM      4  C   LIG    1        2.704  -4.037  -4.695  0.00  0.00    +0.100 A 
ATOM      5  C   LIG    1        3.298  -4.719  -5.734  0.00  0.00    -0.030 A 
ATOM      6  C   LIG    1        3.311  -6.106  -5.742  0.00  0.00    +0.130 A 
ATOM      7  C   LIG    1        2.725  -6.816  -4.704  0.00  0.00    -0.030 A 
ATOM      8  F   LIG    1        3.895  -6.768  -6.764  0.00  0.00    -0.130 F 
ATOM      9  C   LIG    1        2.132  -6.147  -3.656  0.00  0.00    +0.110 A 
ENDBRANCH   1   3
BRANCH   1  10
ATOM     10  C   LIG    1        1.455  -2.521  -2.524  0.00  0.00    +0.030 C 
BRANCH  10  11
ATOM     11  C   LIG    1        0.739  -2.027  -1.265  0.00  0.00    +0.030 C 
BRANCH  11  12
ATOM     12  C   LIG    1        0.718  -0.497  -1.257  0.00  0.00    +0.000 C 
BRANCH  12  14
ATOM     13  C   LIG    1       -0.019   1.526   0.010  0.00  0.00    +0.000 C 
ATOM     14  C   LIG    1        0.002  -0.004   0.002  0.00  0.00    -0.010 C 
ENDBRANCH  12  14
ENDBRANCH  11  12
ENDBRANCH  10  11
ENDBRANCH   1  10
TORSDOF 5
ENDMDL
MODEL      376
REMARK  Name = ZINC000000164122
REMARK                            x       y       z     vdW  Elec       q    Type
REMARK                         _______ _______ _______ _____ _____    ______ ____
ROOT
ATOM      1 CL   LIG    1        0.002  -0.004   0.002  0.00  0.00    -0.100 Cl
ATOM      2  C   LIG    1       -0.022   1.804   0.012  0.00  0.00    +0.125 C 
ATOM      3  C   LIG    1        0.495   2.495   1.262  0.00  0.00    +0.031 C 
ATOM      4  C   LIG    1       -0.214   3.741   1.797  0.00  0.00    +0.007 C 
ATOM      5  C   LIG    1        0.878   4.540   2.527  0.00  0.00    +0.000 C 
ATOM      6  C   LIG    1        1.317   5.728   1.677  0.00  0.00    +0.000 C 
ATOM      7  C   LIG    1        0.708   6.010   0.325  0.00  0.00    +0.000 C 
ATOM      8  C   LIG    1        0.431   4.831  -0.605  0.00  0.00    +0.000 C 
ATOM      9  C   LIG    1        1.622   3.864  -0.604  0.00  0.00    +0.007 C 
ATOM     10 CL   LIG    1       -1.399   2.543  -0.884  0.00  0.00    -0.100 Cl
ATOM     11  C   LIG    1        1.330   2.512   0.003  0.00  0.00    +0.031 C 
ENDROOT
TORSDOF 0
ENDMDL
MODEL      377
REMARK  Name = ZINC000000164121
REMARK                            x       y       z     vdW  Elec       q    Type
REMARK                         _______ _______ _______ _____ _____    ______ ____
ROOT
ATOM      1 CL   LIG    1        0.002  -0.004   0.002  0.00  0.00    -0.100 Cl
ATOM      2  C   LIG    1       -0.022   1.799   0.012  0.00  0.00    +0.125 C 
ATOM      3  C   LIG    1        0.421   2.487   1.271  0.00  0.00    +0.031 C 
ATOM      4  C   LIG    1        0.024   3.814   1.812  0.00  0.00    +0.007 C 
ATOM      5  C   LIG    1        1.232   4.641   2.295  0.00  0.00    +0.000 C 
ATOM      6  C   LIG    1        2.142   4.960   1.089  0.00  0.00    +0.000 C 
ATOM      7  C   LIG    1        3.340   4.037   1.053  0.00  0.00    +0.000 C 
ATOM      8  C   LIG    1        3.224   2.615   1.485  0.00  0.00    +0.000 C 
ATOM      9  C   LIG    1        2.651   1.766   0.324  0.00  0.00    +0.007 C 
ATOM     10 CL   LIG    1       -1.372   2.560  -0.910  0.00  0.00    -0.100 Cl
ATOM     11  C   LIG    1        1.309   2.509   0.003  0.00  0.00    +0.031 C 
ENDROOT
TORSDOF 0
ENDMDL
MODEL      378
REMARK  Name = ZINC000000164124
REMARK                            x       y       z     vdW  Elec       q    Type
REMARK                         _______ _______ _______ _____ _____    ______ ____
ROOT
ATOM      1 CL   LIG    1        0.002  -0.004   0.002  0.00  0.00    -0.100 Cl
ATOM      2  C   LIG    1       -0.022   1.799   0.012  0.00  0.00    +0.125 C 
ATOM      3  C   LIG    1        0.421   2.487   1.271  0.00  0.00    +0.031 C 
ATOM      4  C   LIG    1        1.044   1.911   2.493  0.00  0.00    +0.007 C 
ATOM      5  C   LIG    1        2.258   2.728   2.979  0.00  0.00    +0.000 C 
ATOM      6  C   LIG    1        3.366   2.676   1.906  0.00  0.00    +0.000 C 
ATOM      7  C   LIG    1        3.389   3.947   1.085  0.00  0.00    +0.000 C 
ATOM      8  C   LIG    1        2.125   4.665   0.751  0.00  0.00    +0.000 C 
ATOM      9  C   LIG    1        1.456   3.996  -0.474  0.00  0.00    +0.007 C 
ATOM     10 CL   LIG    1       -1.372   2.560  -0.910  0.00  0.00    -0.100 Cl
ATOM     11  C   LIG    1        1.309   2.509   0.003  0.00  0.00    +0.031 C 
ENDROOT
TORSDOF 0
ENDMDL
MODEL      379
REMARK  Name = ZINC000071786918
REMARK                            x       y       z     vdW  Elec       q    Type
REMARK                         _______ _______ _______ _____ _____    ______ ____
ROOT
ATOM      1  C   LIG    1        1.286  -0.722  -0.014  0.00  0.00    -0.100 C 
ATOM      2  C   LIG    1        1.260  -2.036  -0.026  0.00  0.00    -0.040 C 
ATOM      3  C   LIG    1        2.490  -2.896  -0.034  0.00  0.00    +0.060 C 
ATOM      4  C   LIG    1        3.708  -2.068  -0.451  0.00  0.00    -0.010 C 
ATOM      5  C   LIG    1        3.737  -0.786   0.391  0.00  0.00    +0.020 C 
ATOM      6  C   LIG    1        2.549   0.088  -0.022  0.00  0.00    +0.060 C 
ENDROOT
BRANCH   4   7
ATOM      7  C   LIG    1        4.985  -2.876  -0.209  0.00  0.00    -0.060 C 
ATOM      8  C   LIG    1        5.093  -3.226   1.277  0.00  0.00    +0.020 C 
ATOM      9  C   LIG    1        6.200  -2.045  -0.627  0.00  0.00    +0.020 C 
ATOM     10  C   LIG    1        4.939  -4.163  -1.034  0.00  0.00    +0.020 C 
ENDBRANCH   4   7
BRANCH   1  12
ATOM     11  C   LIG    1       -0.016   1.325   0.009  0.00  0.00    +0.010 C 
ATOM     12  C   LIG    1        0.002  -0.004   0.002  0.00  0.00    -0.020 C 
ENDBRANCH   1  12
TORSDOF 2
ENDMDL
MODEL      380
REMARK  Name = ZINC000071786618
REMARK                            x       y       z     vdW  Elec       q    Type
REMARK                         _______ _______ _______ _____ _____    ______ ____
ROOT
ATOM      1  C   LIG    1        1.286  -0.722  -0.014  0.00  0.00    -0.100 C 
ATOM      2  C   LIG    1        1.401  -2.036  -0.028  0.00  0.00    +0.020 C 
ATOM      3  C   LIG    1        2.844  -2.465  -0.044  0.00  0.00    -0.100 C 
ATOM      4  C   LIG    1        3.733  -2.137   1.158  0.00  0.00    +0.060 C 
ATOM      5  C   LIG    1        3.682  -1.175  -0.031  0.00  0.00    -0.030 C 
ATOM      6  C   LIG    1        2.633  -0.049  -0.023  0.00  0.00    +0.000 C 
ATOM      7  C   LIG    1        2.792   0.807   1.234  0.00  0.00    +0.040 C 
ATOM      8  C   LIG    1        2.785   0.819  -1.274  0.00  0.00    +0.040 C 
ENDROOT
BRANCH   3   9
ATOM      9  C   LIG    1        3.216  -3.633  -0.958  0.00  0.00    +0.020 C 
ATOM     10  C   LIG    1        3.232  -3.158  -2.412  0.00  0.00    +0.020 C 
ATOM     11  C   LIG    1        2.187  -4.754  -0.798  0.00  0.00    +0.030 C 
ENDBRANCH   3   9
BRANCH   1  13
ATOM     12  C   LIG    1       -0.016   1.325   0.009  0.00  0.00    +0.020 C 
ATOM     13  C   LIG    1        0.002  -0.004   0.002  0.00  0.00    +0.010 C 
ENDBRANCH   1  13
TORSDOF 2
ENDMDL
MODEL      381
REMARK  Name = ZINC000071786919
REMARK                            x       y       z     vdW  Elec       q    Type
REMARK                         _______ _______ _______ _____ _____    ______ ____
ROOT
ATOM      1  C   LIG    1        1.286  -0.722  -0.014  0.00  0.00    -0.100 C 
ATOM      2  C   LIG    1        1.260  -2.036  -0.026  0.00  0.00    -0.040 C 
ATOM      3  C   LIG    1        2.490  -2.896  -0.053  0.00  0.00    +0.060 C 
ATOM      4  C   LIG    1        3.714  -2.076   0.361  0.00  0.00    -0.010 C 
ATOM      5  C   LIG    1        3.731  -0.779  -0.457  0.00  0.00    +0.020 C 
ATOM      6  C   LIG    1        2.549   0.088  -0.022  0.00  0.00    +0.060 C 
ENDROOT
BRANCH   4   7
ATOM      7  C   LIG    1        4.987  -2.878   0.085  0.00  0.00    -0.060 C 
ATOM      8  C   LIG    1        4.954  -4.180   0.888  0.00  0.00    +0.020 C 
ATOM      9  C   LIG    1        6.209  -2.055   0.500  0.00  0.00    +0.020 C 
ATOM     10  C   LIG    1        5.073  -3.201  -1.408  0.00  0.00    +0.020 C 
ENDBRANCH   4   7
BRANCH   1  12
ATOM     11  C   LIG    1       -0.016   1.325   0.009  0.00  0.00    +0.010 C 
ATOM     12  C   LIG    1        0.002  -0.004   0.002  0.00  0.00    -0.020 C 
ENDBRANCH   1  12
TORSDOF 2
ENDMDL
MODEL      382
REMARK  Name = ZINC000037185354
REMARK                            x       y       z     vdW  Elec       q    Type
REMARK                         _______ _______ _______ _____ _____    ______ ____
ROOT
ATOM      1  N   LIG    1       -2.171  -0.255  -1.092  0.00  0.00    -0.740 N 
ATOM      2  H   LIG    1       -1.801  -0.544  -1.941  0.00  0.00    +0.400 HD
ENDROOT
BRANCH   1   3
ATOM      3  C   LIG    1       -3.259   0.621  -1.067  0.00  0.00    +0.230 A 
ATOM      4  C   LIG    1       -3.697   1.151   0.140  0.00  0.00    -0.090 A 
ATOM      5  C   LIG    1       -4.773   2.017   0.161  0.00  0.00    +0.050 A 
ATOM      6  C   LIG    1       -5.413   2.356  -1.017  0.00  0.00    -0.060 A 
ATOM      7  C   LIG    1       -4.979   1.829  -2.220  0.00  0.00    -0.040 A 
ATOM      8  C   LIG    1       -5.680   2.202  -3.501  0.00  0.00    +0.080 C 
ATOM      9  C   LIG    1       -3.901   0.968  -2.249  0.00  0.00    -0.080 A 
ENDBRANCH   1   3
BRANCH   1  10
ATOM     10  C   LIG    1       -1.589  -0.737   0.163  0.00  0.00    +0.240 C 
BRANCH  10  11
ATOM     11  C   LIG    1       -1.547  -2.266   0.152  0.00  0.00    -0.040 C 
ATOM     12  C   LIG    1       -2.968  -2.814   0.005  0.00  0.00    +0.020 C 
ATOM     13  C   LIG    1       -0.939  -2.769   1.463  0.00  0.00    +0.030 C 
ENDBRANCH  10  11
BRANCH  10  15
ATOM     14  C   LIG    1       -0.218   1.337   0.411  0.00  0.00    +0.010 C 
ATOM     15  C   LIG    1       -0.168  -0.189   0.310  0.00  0.00    -0.010 C 
ENDBRANCH  10  15
ENDBRANCH   1  10
TORSDOF 4
ENDMDL
MODEL      383
REMARK  Name = ZINC000037185353
REMARK                            x       y       z     vdW  Elec       q    Type
REMARK                         _______ _______ _______ _____ _____    ______ ____
ROOT
ATOM      1  N   LIG    1       -2.082  -0.162   1.273  0.00  0.00    -0.740 N 
ATOM      2  H   LIG    1       -2.092  -0.785   2.016  0.00  0.00    +0.400 HD
ENDROOT
BRANCH   1   3
ATOM      3  C   LIG    1       -2.685   1.091   1.405  0.00  0.00    +0.220 A 
ATOM      4  C   LIG    1       -2.676   1.983   0.340  0.00  0.00    -0.070 A 
ATOM      5  C   LIG    1       -3.274   3.221   0.474  0.00  0.00    +0.050 A 
ATOM      6  C   LIG    1       -3.881   3.572   1.666  0.00  0.00    -0.060 A 
ATOM      7  C   LIG    1       -3.891   2.687   2.728  0.00  0.00    -0.040 A 
ATOM      8  C   LIG    1       -4.554   3.074   4.025  0.00  0.00    +0.080 C 
ATOM      9  C   LIG    1       -3.300   1.445   2.599  0.00  0.00    -0.080 A 
ENDBRANCH   1   3
BRANCH   1  10
ATOM     10  C   LIG    1       -1.433  -0.534   0.013  0.00  0.00    +0.240 C 
BRANCH  10  11
ATOM     11  C   LIG    1       -1.416  -2.058  -0.121  0.00  0.00    -0.020 C 
ATOM     12  C   LIG    1       -0.640  -2.664   1.050  0.00  0.00    +0.020 C 
ATOM     13  C   LIG    1       -0.739  -2.446  -1.437  0.00  0.00    +0.030 C 
ENDBRANCH  10  11
BRANCH  10  15
ATOM     14  C   LIG    1       -0.019   1.526   0.010  0.00  0.00    +0.020 C 
ATOM     15  C   LIG    1        0.002  -0.004   0.002  0.00  0.00    +0.000 C 
ENDBRANCH  10  15
ENDBRANCH   1  10
TORSDOF 4
ENDMDL
MODEL      384
REMARK  Name = ZINC000037186073
REMARK                            x       y       z     vdW  Elec       q    Type
REMARK                         _______ _______ _______ _____ _____    ______ ____
ROOT
ATOM      1  N   LIG    1        2.039  -0.197  -1.337  0.00  0.00    -0.740 N 
ATOM      2  H   LIG    1        2.545  -0.180  -0.510  0.00  0.00    +0.400 HD
ENDROOT
BRANCH   1   3
ATOM      3  C   LIG    1        2.682   0.048  -2.553  0.00  0.00    +0.220 A 
ATOM      4  C   LIG    1        1.987  -0.092  -3.748  0.00  0.00    -0.080 A 
ATOM      5  C   LIG    1        2.625   0.151  -4.949  0.00  0.00    +0.050 A 
ATOM      6  C   LIG    1        3.954   0.532  -4.962  0.00  0.00    -0.060 A 
ATOM      7  C   LIG    1        4.649   0.671  -3.775  0.00  0.00    +0.050 A 
ATOM      8  C   LIG    1        4.015   0.436  -2.570  0.00  0.00    -0.080 A 
ENDBRANCH   1   3
BRANCH   1   9
ATOM      9  C   LIG    1        0.602  -0.478  -1.312  0.00  0.00    +0.240 C 
BRANCH   9  10
ATOM     10  C   LIG    1        0.371  -1.975  -1.532  0.00  0.00    -0.040 C 
ATOM     11  C   LIG    1       -1.130  -2.250  -1.630  0.00  0.00    +0.020 C 
ATOM     12  C   LIG    1        0.958  -2.759  -0.357  0.00  0.00    +0.010 C 
ENDBRANCH   9  10
BRANCH   9  14
ATOM     13  C   LIG    1        0.136   1.450   0.207  0.00  0.00    +0.000 C 
ATOM     14  C   LIG    1        0.026  -0.067   0.045  0.00  0.00    +0.020 C 
ENDBRANCH   9  14
ENDBRANCH   1   9
TORSDOF 4
ENDMDL
MODEL      385
REMARK  Name = ZINC000037210573
REMARK                            x       y       z     vdW  Elec       q    Type
REMARK                         _______ _______ _______ _____ _____    ______ ____
ROOT
ATOM      1  N   LIG    1        0.147  -0.243   2.432  0.00  0.00    -0.740 N 
ATOM      2  H   LIG    1       -0.823  -0.242   2.456  0.00  0.00    +0.400 HD
ENDROOT
BRANCH   1   3
ATOM      3  C   LIG    1        0.876  -0.010   3.602  0.00  0.00    +0.210 A 
ATOM      4  C   LIG    1        2.260  -0.128   3.594  0.00  0.00    -0.040 A 
ATOM      5  C   LIG    1        2.978   0.102   4.751  0.00  0.00    +0.030 A 
ATOM      6  C   LIG    1        2.319   0.449   5.919  0.00  0.00    +0.030 A 
ATOM      7  C   LIG    1        0.940   0.568   5.929  0.00  0.00    +0.030 A 
ATOM      8  F   LIG    1        3.024   0.673   7.050  0.00  0.00    -0.150 F 
ATOM      9  C   LIG    1        0.218   0.344   4.772  0.00  0.00    -0.040 A 
ENDBRANCH   1   3
BRANCH   1  10
ATOM     10  C   LIG    1        0.848  -0.488   1.169  0.00  0.00    +0.240 C 
BRANCH  10  11
ATOM     11  C   LIG    1        1.177  -1.978   1.049  0.00  0.00    -0.040 C 
ATOM     12  C   LIG    1        2.016  -2.216  -0.208  0.00  0.00    +0.030 C 
ATOM     13  C   LIG    1       -0.122  -2.781   0.954  0.00  0.00    +0.010 C 
ENDBRANCH  10  11
BRANCH  10  15
ATOM     14  C   LIG    1       -0.265   1.446   0.044  0.00  0.00    +0.020 C 
ATOM     15  C   LIG    1       -0.046  -0.068  -0.000  0.00  0.00    +0.010 C 
ENDBRANCH  10  15
ENDBRANCH   1  10
TORSDOF 4
ENDMDL
MODEL      386
REMARK  Name = ZINC000037210572
REMARK                            x       y       z     vdW  Elec       q    Type
REMARK                         _______ _______ _______ _____ _____    ______ ____
ROOT
ATOM      1  N   LIG    1        2.148  -0.104   1.172  0.00  0.00    -0.740 N 
ATOM      2  H   LIG    1        2.812  -0.712   0.811  0.00  0.00    +0.400 HD
ENDROOT
BRANCH   1   3
ATOM      3  C   LIG    1        2.532   1.162   1.624  0.00  0.00    +0.210 A 
ATOM      4  C   LIG    1        1.584   2.032   2.146  0.00  0.00    -0.030 A 
ATOM      5  C   LIG    1        1.966   3.282   2.592  0.00  0.00    +0.020 A 
ATOM      6  C   LIG    1        3.294   3.668   2.520  0.00  0.00    +0.030 A 
ATOM      7  C   LIG    1        4.241   2.802   2.001  0.00  0.00    +0.030 A 
ATOM      8  F   LIG    1        3.665   4.891   2.957  0.00  0.00    -0.150 F 
ATOM      9  C   LIG    1        3.864   1.549   1.559  0.00  0.00    -0.040 A 
ENDBRANCH   1   3
BRANCH   1  10
ATOM     10  C   LIG    1        0.742  -0.511   1.242  0.00  0.00    +0.230 C 
BRANCH  10  11
ATOM     11  C   LIG    1        0.655  -2.037   1.299  0.00  0.00    -0.030 C 
ATOM     12  C   LIG    1       -0.812  -2.462   1.372  0.00  0.00    +0.030 C 
ATOM     13  C   LIG    1        1.395  -2.544   2.538  0.00  0.00    +0.030 C 
ENDBRANCH  10  11
BRANCH  10  15
ATOM     14  C   LIG    1       -0.019   1.526   0.010  0.00  0.00    +0.020 C 
ATOM     15  C   LIG    1        0.002  -0.004   0.002  0.00  0.00    -0.010 C 
ENDBRANCH  10  15
ENDBRANCH   1  10
TORSDOF 4
ENDMDL
MODEL      387
REMARK  Name = ZINC000037211236
REMARK                            x       y       z     vdW  Elec       q    Type
REMARK                         _______ _______ _______ _____ _____    ______ ____
ROOT
ATOM      1  N   LIG    1        2.128  -0.202  -1.292  0.00  0.00    -0.730 N 
ATOM      2  H   LIG    1        2.672  -0.394  -0.512  0.00  0.00    +0.400 HD
ENDROOT
BRANCH   1   3
ATOM      3  C   LIG    1        2.693   0.438  -2.399  0.00  0.00    +0.200 A 
ATOM      4  C   LIG    1        1.891   0.825  -3.464  0.00  0.00    -0.050 A 
ATOM      5  C   LIG    1        2.453   1.457  -4.557  0.00  0.00    +0.050 A 
ATOM      6  C   LIG    1        3.812   1.706  -4.591  0.00  0.00    -0.020 A 
ATOM      7  C   LIG    1        4.616   1.322  -3.533  0.00  0.00    +0.030 A 
ATOM      8  C   LIG    1        4.060   0.694  -2.434  0.00  0.00    +0.010 A 
ATOM      9  F   LIG    1        4.845   0.320  -1.400  0.00  0.00    -0.150 F 
ENDBRANCH   1   3
BRANCH   1  10
ATOM     10  C   LIG    1        0.713  -0.583  -1.309  0.00  0.00    +0.240 C 
BRANCH  10  11
ATOM     11  C   LIG    1        0.595  -2.107  -1.260  0.00  0.00    -0.040 C 
ATOM     12  C   LIG    1        1.402  -2.719  -2.406  0.00  0.00    +0.020 C 
ATOM     13  C   LIG    1       -0.875  -2.509  -1.400  0.00  0.00    +0.030 C 
ENDBRANCH  10  11
BRANCH  10  15
ATOM     14  C   LIG    1        0.017   1.549  -0.208  0.00  0.00    +0.010 C 
ATOM     15  C   LIG    1        0.007   0.024  -0.095  0.00  0.00    -0.000 C 
ENDBRANCH  10  15
ENDBRANCH   1  10
TORSDOF 4
ENDMDL
MODEL      388
REMARK  Name = ZINC000037202653
REMARK                            x       y       z     vdW  Elec       q    Type
REMARK                         _______ _______ _______ _____ _____    ______ ____
ROOT
ATOM      1  N   LIG    1       -0.055  -0.114  -2.441  0.00  0.00    -0.730 N 
ATOM      2  H   LIG    1       -1.010   0.038  -2.368  0.00  0.00    +0.400 HD
ENDROOT
BRANCH   1   3
ATOM      3  C   LIG    1        0.583   0.033  -3.674  0.00  0.00    +0.250 A 
ATOM      4  C   LIG    1        1.950  -0.190  -3.781  0.00  0.00    -0.080 A 
ATOM      5  C   LIG    1        2.580  -0.044  -5.002  0.00  0.00    +0.090 A 
ATOM      6  C   LIG    1        1.852   0.324  -6.118  0.00  0.00    -0.090 A 
ATOM      7  C   LIG    1        0.488   0.547  -6.016  0.00  0.00    +0.150 A 
ATOM      8  F   LIG    1       -0.221   0.907  -7.108  0.00  0.00    -0.140 F 
ATOM      9  C   LIG    1       -0.148   0.397  -4.797  0.00  0.00    -0.110 A 
ENDBRANCH   1   3
BRANCH   1  10
ATOM     10  C   LIG    1        0.718  -0.497  -1.257  0.00  0.00    +0.240 C 
BRANCH  10  11
ATOM     11  C   LIG    1        0.849  -2.021  -1.205  0.00  0.00    -0.040 C 
ATOM     12  C   LIG    1       -0.543  -2.650  -1.131  0.00  0.00    +0.010 C 
ATOM     13  C   LIG    1        1.657  -2.422   0.031  0.00  0.00    +0.030 C 
ENDBRANCH  10  11
BRANCH  10  15
ATOM     14  C   LIG    1       -0.019   1.526   0.010  0.00  0.00    +0.020 C 
ATOM     15  C   LIG    1        0.002  -0.004   0.002  0.00  0.00    +0.010 C 
ENDBRANCH  10  15
ENDBRANCH   1  10
TORSDOF 4
ENDMDL
MODEL      389
REMARK  Name = ZINC000037216372
REMARK                            x       y       z     vdW  Elec       q    Type
REMARK                         _______ _______ _______ _____ _____    ______ ____
ROOT
ATOM      1  N   LIG    1       -2.181  -0.157   1.218  0.00  0.00    -0.740 N 
ATOM      2  H   LIG    1       -1.936  -0.531   2.078  0.00  0.00    +0.400 HD
ENDROOT
BRANCH   1   3
ATOM      3  C   LIG    1       -3.257   0.728   1.122  0.00  0.00    +0.220 A 
ATOM      4  C   LIG    1       -3.690   1.166  -0.123  0.00  0.00    -0.080 A 
ATOM      5  C   LIG    1       -4.755   2.041  -0.213  0.00  0.00    +0.040 A 
ATOM      6  C   LIG    1       -5.391   2.481   0.933  0.00  0.00    -0.060 A 
ATOM      7  C   LIG    1       -4.962   2.047   2.175  0.00  0.00    +0.050 A 
ATOM      8  C   LIG    1       -3.901   1.168   2.272  0.00  0.00    -0.170 A 
ATOM      9  C   LIG    1       -3.434   0.696   3.625  0.00  0.00    +0.080 C 
ENDBRANCH   1   3
BRANCH   1  10
ATOM     10  C   LIG    1       -1.423  -0.519   0.018  0.00  0.00    +0.240 C 
BRANCH  10  11
ATOM     11  C   LIG    1       -1.408  -2.042  -0.136  0.00  0.00    -0.030 C 
ATOM     12  C   LIG    1       -2.831  -2.541  -0.398  0.00  0.00    +0.020 C 
ATOM     13  C   LIG    1       -0.872  -2.679   1.148  0.00  0.00    +0.020 C 
ENDBRANCH  10  11
BRANCH  10  15
ATOM     14  C   LIG    1        0.008   1.523   0.176  0.00  0.00    +0.010 C 
ATOM     15  C   LIG    1        0.013  -0.007   0.148  0.00  0.00    +0.000 C 
ENDBRANCH  10  15
ENDBRANCH   1  10
TORSDOF 4
ENDMDL
MODEL      390
REMARK  Name = ZINC000037211235
REMARK                            x       y       z     vdW  Elec       q    Type
REMARK                         _______ _______ _______ _____ _____    ______ ____
ROOT
ATOM      1  N   LIG    1        0.193   0.037  -2.483  0.00  0.00    -0.730 N 
ATOM      2  H   LIG    1       -0.669  -0.272  -2.802  0.00  0.00    +0.400 HD
ENDROOT
BRANCH   1   3
ATOM      3  C   LIG    1        0.943   0.931  -3.254  0.00  0.00    +0.200 A 
ATOM      4  C   LIG    1        2.234   1.267  -2.870  0.00  0.00    -0.050 A 
ATOM      5  C   LIG    1        2.974   2.150  -3.634  0.00  0.00    +0.050 A 
ATOM      6  C   LIG    1        2.429   2.700  -4.780  0.00  0.00    -0.020 A 
ATOM      7  C   LIG    1        1.143   2.369  -5.166  0.00  0.00    +0.020 A 
ATOM      8  C   LIG    1        0.400   1.481  -4.411  0.00  0.00    +0.010 A 
ATOM      9  F   LIG    1       -0.856   1.158  -4.788  0.00  0.00    -0.150 F 
ENDBRANCH   1   3
BRANCH   1  10
ATOM     10  C   LIG    1        0.710  -0.432  -1.195  0.00  0.00    +0.240 C 
BRANCH  10  11
ATOM     11  C   LIG    1        1.117  -1.902  -1.314  0.00  0.00    -0.040 C 
ATOM     12  C   LIG    1        1.787  -2.352  -0.015  0.00  0.00    +0.030 C 
ATOM     13  C   LIG    1        2.097  -2.067  -2.477  0.00  0.00    +0.010 C 
ENDBRANCH  10  11
BRANCH  10  15
ATOM     14  C   LIG    1       -0.695   1.194   0.080  0.00  0.00    +0.010 C 
ATOM     15  C   LIG    1       -0.377  -0.288  -0.128  0.00  0.00    +0.010 C 
ENDBRANCH  10  15
ENDBRANCH   1  10
TORSDOF 4
ENDMDL
MODEL      391
REMARK  Name = ZINC000037202654
REMARK                            x       y       z     vdW  Elec       q    Type
REMARK                         _______ _______ _______ _____ _____    ______ ____
ROOT
ATOM      1  N   LIG    1        2.079  -0.153  -1.025  0.00  0.00    -0.730 N 
ATOM      2  H   LIG    1        2.471  -0.338  -0.158  0.00  0.00    +0.400 HD
ENDROOT
BRANCH   1   3
ATOM      3  C   LIG    1        2.818   0.527  -1.996  0.00  0.00    +0.250 A 
ATOM      4  C   LIG    1        2.209   0.932  -3.177  0.00  0.00    -0.080 A 
ATOM      5  C   LIG    1        2.942   1.604  -4.136  0.00  0.00    +0.090 A 
ATOM      6  C   LIG    1        4.280   1.875  -3.922  0.00  0.00    -0.090 A 
ATOM      7  C   LIG    1        4.891   1.473  -2.746  0.00  0.00    +0.150 A 
ATOM      8  F   LIG    1        6.200   1.739  -2.539  0.00  0.00    -0.140 F 
ATOM      9  C   LIG    1        4.161   0.805  -1.780  0.00  0.00    -0.110 A 
ENDBRANCH   1   3
BRANCH   1  10
ATOM     10  C   LIG    1        0.710  -0.587  -1.317  0.00  0.00    +0.240 C 
BRANCH  10  11
ATOM     11  C   LIG    1        0.647  -2.115  -1.308  0.00  0.00    -0.030 C 
ATOM     12  C   LIG    1        1.191  -2.641   0.022  0.00  0.00    +0.020 C 
ATOM     13  C   LIG    1        1.492  -2.667  -2.458  0.00  0.00    +0.010 C 
ENDBRANCH  10  11
BRANCH  10  15
ATOM     14  C   LIG    1       -0.271   1.496  -0.346  0.00  0.00    +0.010 C 
ATOM     15  C   LIG    1       -0.239  -0.031  -0.254  0.00  0.00    +0.000 C 
ENDBRANCH  10  15
ENDBRANCH   1  10
TORSDOF 4
ENDMDL
MODEL      392
REMARK  Name = ZINC000104281828
REMARK                            x       y       z     vdW  Elec       q    Type
REMARK                         _______ _______ _______ _____ _____    ______ ____
ROOT
ATOM      1 CL   LIG    1        0.002  -0.004   0.002  0.00  0.00    -0.090 Cl
ATOM      2  C   LIG    1       -0.022   1.799   0.012  0.00  0.00    +0.030 C 
ATOM      3  C   LIG    1        0.446   2.488   1.256  0.00  0.00    -0.020 C 
ATOM      4  C   LIG    1        0.006   3.755   1.897  0.00  0.00    +0.070 C 
ATOM      5  C   LIG    1        1.135   4.384   2.703  0.00  0.00    +0.070 C 
ATOM      6  C   LIG    1        2.278   4.753   1.787  0.00  0.00    -0.050 C 
ATOM      7  C   LIG    1        3.114   3.943   1.294  0.00  0.00    -0.050 C 
ATOM      8  C   LIG    1        3.180   2.458   1.530  0.00  0.00    +0.050 C 
ATOM      9  C   LIG    1        2.669   1.767   0.230  0.00  0.00    +0.070 C 
ATOM     10 CL   LIG    1       -1.380   2.562  -0.897  0.00  0.00    -0.100 Cl
ATOM     11  C   LIG    1        1.306   2.511   0.003  0.00  0.00    +0.010 C 
ENDROOT
TORSDOF 0
ENDMDL
MODEL      393
REMARK  Name = ZINC000004336061
REMARK                            x       y       z     vdW  Elec       q    Type
REMARK                         _______ _______ _______ _____ _____    ______ ____
ROOT
ATOM      1  C   LIG    1       -0.018   1.503   0.010  0.00  0.00    +0.080 C 
ATOM      2  C   LIG    1        0.002  -0.004   0.002  0.00  0.00    -0.110 A 
ATOM      3  C   LIG    1        0.006  -0.686  -1.207  0.00  0.00    +0.020 A 
ATOM      4  C   LIG    1        0.026  -2.063  -1.237  0.00  0.00    -0.010 A 
ATOM      5  C   LIG    1        0.042  -2.780  -0.045  0.00  0.00    +0.090 A 
ATOM      6  N   LIG    1        0.064  -4.124   0.253  0.00  0.00    -0.590 N 
ATOM      7  H   LIG    1        0.072  -4.839  -0.403  0.00  0.00    +0.410 HD
ATOM      8  C   LIG    1        0.073  -4.304   1.611  0.00  0.00    +0.080 A 
ATOM      9  C   LIG    1        0.051  -3.108   2.223  0.00  0.00    -0.160 A 
ATOM     10  C   LIG    1        0.039  -2.873   3.711  0.00  0.00    +0.100 C 
ATOM     11  C   LIG    1        0.728  -4.044   4.416  0.00  0.00    +0.020 C 
ATOM     12  C   LIG    1       -0.301  -5.128   4.727  0.00  0.00    +0.010 C 
ATOM     13  C   LIG    1       -0.924  -5.658   3.439  0.00  0.00    +0.030 C 
ATOM     14  C   LIG    1        0.115  -5.639   2.317  0.00  0.00    +0.100 C 
ATOM     15  C   LIG    1        0.035  -2.084   1.178  0.00  0.00    -0.100 A 
ATOM     16  C   LIG    1        0.023  -0.688   1.185  0.00  0.00    +0.050 A 
ENDROOT
TORSDOF 0
ENDMDL
MODEL      394
REMARK  Name = ZINC000169746869
REMARK                            x       y       z     vdW  Elec       q    Type
REMARK                         _______ _______ _______ _____ _____    ______ ____
ROOT
ATOM      1  C   LIG    1        2.618   0.001  -1.607  0.00  0.00    +0.000 A 
ATOM      2  C   LIG    1        2.887   1.260  -2.131  0.00  0.00    +0.000 A 
ATOM      3  C   LIG    1        4.150   1.804  -2.003  0.00  0.00    +0.000 A 
ATOM      4  C   LIG    1        5.146   1.097  -1.355  0.00  0.00    +0.000 A 
ATOM      5  C   LIG    1        4.883  -0.156  -0.832  0.00  0.00    +0.000 A 
ATOM      6  C   LIG    1        3.621  -0.704  -0.951  0.00  0.00    +0.000 A 
ENDROOT
BRANCH   1   7
ATOM      7  S   LIG    1        1.008  -0.697  -1.767  0.00  0.00    +0.000 S 
BRANCH   7   9
ATOM      8  C   LIG    1       -0.023   1.859   0.012  0.00  0.00    +0.000 C 
ATOM      9 SI   LIG    1        0.002  -0.004   0.002  0.00  0.00    +0.000 Si
ATOM     10  C   LIG    1       -1.746  -0.649   0.015  0.00  0.00    +0.000 C 
ATOM     11  C   LIG    1        0.903  -0.621   1.511  0.00  0.00    +0.000 C 
ENDBRANCH   7   9
ENDBRANCH   1   7
TORSDOF 2
ENDMDL
MODEL      395
REMARK  Name = ZINC000169746808
REMARK                            x       y       z     vdW  Elec       q    Type
REMARK                         _______ _______ _______ _____ _____    ______ ____
ROOT
ATOM      1 SI   LIG    1       -1.746  -0.649   0.015  0.00  0.00    +0.000 Si
ENDROOT
BRANCH   1   3
ATOM      2  C   LIG    1       -0.019   1.526   0.010  0.00  0.00    +0.000 C 
ATOM      3  C   LIG    1        0.002  -0.004   0.002  0.00  0.00    +0.000 C 
ENDBRANCH   1   3
BRANCH   1   4
ATOM      4  C   LIG    1       -1.720  -2.512   0.005  0.00  0.00    +0.000 C 
ATOM      5  C   LIG    1       -3.156  -3.041   0.016  0.00  0.00    +0.000 C 
ENDBRANCH   1   4
BRANCH   1   6
ATOM      6  C   LIG    1       -2.647  -0.032  -1.494  0.00  0.00    +0.000 C 
ATOM      7  C   LIG    1       -1.931  -0.525  -2.753  0.00  0.00    +0.000 C 
ENDBRANCH   1   6
BRANCH   1   8
ATOM      8  C   LIG    1       -2.618  -0.048   1.548  0.00  0.00    +0.000 C 
ATOM      9  C   LIG    1       -1.878  -0.555   2.788  0.00  0.00    +0.000 C 
ENDBRANCH   1   8
TORSDOF 4
ENDMDL
MODEL      396
REMARK  Name = ZINC000169833383
REMARK                            x       y       z     vdW  Elec       q    Type
REMARK                         _______ _______ _______ _____ _____    ______ ____
ROOT
ATOM      1  C   LIG    1        2.288  -0.083  -1.542  0.00  0.00    +0.000 A 
ATOM      2  C   LIG    1        2.571   1.134  -2.131  0.00  0.00    +0.000 A 
ATOM      3  C   LIG    1        3.868   1.613  -2.141  0.00  0.00    +0.000 A 
ATOM      4  C   LIG    1        4.882   0.874  -1.562  0.00  0.00    +0.000 A 
ATOM      5  C   LIG    1        4.601  -0.344  -0.972  0.00  0.00    +0.000 A 
ATOM      6  C   LIG    1        3.302  -0.821  -0.956  0.00  0.00    +0.000 A 
ATOM      7 CL   LIG    1        2.947  -2.350  -0.215  0.00  0.00    +0.000 Cl
ENDROOT
BRANCH   1   8
ATOM      8  C   LIG    1        0.874  -0.605  -1.531  0.00  0.00    +0.000 C 
BRANCH   8  10
ATOM      9  C   LIG    1       -0.023   1.859   0.012  0.00  0.00    +0.000 C 
ATOM     10 SI   LIG    1        0.002  -0.004   0.002  0.00  0.00    +0.000 Si
ATOM     11  C   LIG    1       -1.746  -0.649   0.015  0.00  0.00    +0.000 C 
ATOM     12  C   LIG    1        0.903  -0.621   1.511  0.00  0.00    +0.000 C 
ENDBRANCH   8  10
ENDBRANCH   1   8
TORSDOF 2
ENDMDL
MODEL      397
REMARK  Name = ZINC000170153466
REMARK                            x       y       z     vdW  Elec       q    Type
REMARK                         _______ _______ _______ _____ _____    ______ ____
ROOT
ATOM      1  S   LIG    1        2.631  -0.112  -1.460  0.00  0.00    +0.000 S 
ENDROOT
BRANCH   1   2
ATOM      2  C   LIG    1        3.254  -0.635  -3.023  0.00  0.00    +0.000 A 
ATOM      3  C   LIG    1        2.440  -1.351  -3.893  0.00  0.00    +0.000 A 
ATOM      4  C   LIG    1        2.932  -1.759  -5.117  0.00  0.00    +0.000 A 
ATOM      5  C   LIG    1        4.232  -1.456  -5.478  0.00  0.00    +0.000 A 
ATOM      6  C   LIG    1        5.045  -0.743  -4.614  0.00  0.00    +0.000 A 
ATOM      7  C   LIG    1        4.558  -0.327  -3.391  0.00  0.00    +0.000 A 
ENDBRANCH   1   2
BRANCH   1   8
ATOM      8  C   LIG    1        0.884  -0.596  -1.534  0.00  0.00    +0.000 C 
BRANCH   8  10
ATOM      9  C   LIG    1        0.005   1.875   0.008  0.00  0.00    +0.000 C 
ATOM     10 SI   LIG    1        0.005   0.012  -0.008  0.00  0.00    +0.000 Si
ATOM     11  C   LIG    1       -1.751  -0.610  -0.013  0.00  0.00    +0.000 C 
ATOM     12  C   LIG    1        0.884  -0.622   1.508  0.00  0.00    +0.000 C 
ENDBRANCH   8  10
ENDBRANCH   1   8
TORSDOF 3
ENDMDL
MODEL      398
REMARK  Name = ZINC000169806106
REMARK                            x       y       z     vdW  Elec       q    Type
REMARK                         _______ _______ _______ _____ _____    ______ ____
ROOT
ATOM      1 SI   LIG    1        0.903  -0.621   1.511  0.00  0.00    +0.000 Si
ENDROOT
BRANCH   1   2
ATOM      2  C   LIG    1        2.651   0.024   1.498  0.00  0.00    +0.000 C 
ATOM      3  F   LIG    1        3.306  -0.427   0.347  0.00  0.00    +0.000 F 
ATOM      4  F   LIG    1        3.328  -0.440   2.631  0.00  0.00    +0.000 F 
ATOM      5  F   LIG    1        2.632   1.423   1.506  0.00  0.00    +0.000 F 
ENDBRANCH   1   2
BRANCH   1   7
ATOM      6  C   LIG    1       -0.019   1.526   0.010  0.00  0.00    +0.000 C 
ATOM      7  C   LIG    1        0.002  -0.004   0.002  0.00  0.00    +0.000 C 
ENDBRANCH   1   7
BRANCH   1   8
ATOM      8  C   LIG    1        0.928  -2.484   1.501  0.00  0.00    +0.000 C 
ATOM      9  C   LIG    1        1.668  -2.991   2.741  0.00  0.00    +0.000 C 
ENDBRANCH   1   8
BRANCH   1  10
ATOM     10  C   LIG    1        0.031  -0.020   3.044  0.00  0.00    +0.000 C 
ATOM     11  C   LIG    1       -1.404  -0.550   3.055  0.00  0.00    +0.000 C 
ENDBRANCH   1  10
TORSDOF 4
ENDMDL
MODEL      399
REMARK  Name = ZINC000111339452
REMARK                            x       y       z     vdW  Elec       q    Type
REMARK                         _______ _______ _______ _____ _____    ______ ____
ROOT
ATOM      1  C   LIG    1        3.711  -0.707  -0.037  0.00  0.00    +0.021 C 
ATOM      2  C   LIG    1        4.152  -1.374   1.268  0.00  0.00    +0.017 C 
ATOM      3  C   LIG    1        3.682  -2.232   0.091  0.00  0.00    +0.017 C 
ENDROOT
BRANCH   1   7
ATOM      4  C   LIG    1       -0.035   1.345  -0.037  0.00  0.00    +0.000 A 
ATOM      5  C   LIG    1        0.864   1.547   0.994  0.00  0.00    +0.000 A 
ATOM      6  C   LIG    1        2.076   0.883   0.994  0.00  0.00    +0.004 A 
ATOM      7  C   LIG    1        2.389   0.017  -0.037  0.00  0.00    -0.037 A 
ATOM      8  C   LIG    1        1.490  -0.187  -1.067  0.00  0.00    +0.004 A 
ATOM      9  C   LIG    1        0.278   0.479  -1.067  0.00  0.00    +0.000 A 
ENDBRANCH   1   7
BRANCH   1  10
ATOM     10  C   LIG    1        4.783  -0.102  -0.907  0.00  0.00    -0.037 A 
ATOM     11  C   LIG    1        5.244  -0.789  -2.014  0.00  0.00    +0.004 A 
ATOM     12  C   LIG    1        6.227  -0.234  -2.812  0.00  0.00    +0.000 A 
ATOM     13  C   LIG    1        6.749   1.008  -2.502  0.00  0.00    +0.000 A 
ATOM     14  C   LIG    1        6.288   1.695  -1.395  0.00  0.00    +0.000 A 
ATOM     15  C   LIG    1        5.302   1.142  -0.600  0.00  0.00    +0.004 A 
ENDBRANCH   1  10
TORSDOF 2
ENDMDL
MODEL      400
REMARK  Name = ZINC000077011907
REMARK                            x       y       z     vdW  Elec       q    Type
REMARK                         _______ _______ _______ _____ _____    ______ ____
ROOT
ATOM      1  C   LIG    1        0.707  -0.490  -1.238  0.00  0.00    -0.150 A 
ATOM      2  C   LIG    1       -0.026  -0.717  -2.400  0.00  0.00    +0.040 A 
ATOM      3  C   LIG    1        0.580  -1.156  -3.537  0.00  0.00    +0.030 A 
ATOM      4  C   LIG    1        1.966  -1.385  -3.542  0.00  0.00    -0.040 A 
ATOM      5  C   LIG    1        2.627  -1.837  -4.697  0.00  0.00    +0.020 A 
ATOM      6  C   LIG    1        3.972  -2.048  -4.664  0.00  0.00    +0.020 A 
ATOM      7  C   LIG    1        4.706  -1.821  -3.501  0.00  0.00    +0.010 A 
ATOM      8  C   LIG    1        4.099  -1.382  -2.364  0.00  0.00    +0.030 A 
ATOM      9  C   LIG    1        2.713  -1.154  -2.360  0.00  0.00    -0.060 A 
ATOM     10  C   LIG    1        2.053  -0.696  -1.207  0.00  0.00    +0.070 A 
ENDROOT
BRANCH   1  12
ATOM     11  C   LIG    1       -0.019   1.526   0.010  0.00  0.00    +0.080 C 
ATOM     12  C   LIG    1        0.002  -0.004   0.002  0.00  0.00    +0.340 C 
ATOM     13  F   LIG    1       -1.310  -0.488   0.012  0.00  0.00    -0.190 F 
ATOM     14  F   LIG    1        0.679  -0.468   1.135  0.00  0.00    -0.190 F 
ENDBRANCH   1  12
TORSDOF 1
ENDMDL
MODEL      401
REMARK  Name = ZINC000000400098
REMARK                            x       y       z     vdW  Elec       q    Type
REMARK                         _______ _______ _______ _____ _____    ______ ____
ROOT
ATOM      1  C   LIG    1        0.671  -2.403   1.366  0.00  0.00    +0.120 C 
ENDROOT
BRANCH   1   2
ATOM      2  S   LIG    1        0.740  -0.595   1.235  0.00  0.00    -0.180 S 
BRANCH   2   4
ATOM      3  C   LIG    1       -0.281   1.247  -0.510  0.00  0.00    +0.070 C 
ATOM      4  C   LIG    1       -0.148  -0.264  -0.312  0.00  0.00    +0.100 C 
ENDBRANCH   2   4
ENDBRANCH   1   2
BRANCH   1   5
ATOM      5  S   LIG    1        1.586  -3.145  -0.014  0.00  0.00    -0.220 S 
BRANCH   5   6
ATOM      6  C   LIG    1        3.318  -2.906   0.471  0.00  0.00    +0.070 C 
ATOM      7  C   LIG    1        4.234  -3.376  -0.661  0.00  0.00    +0.060 C 
ENDBRANCH   5   6
ENDBRANCH   1   5
BRANCH   1   8
ATOM      8  S   LIG    1       -1.058  -2.949   1.306  0.00  0.00    -0.170 S 
BRANCH   8   9
ATOM      9  C   LIG    1       -0.968  -4.659   1.903  0.00  0.00    +0.070 C 
ATOM     10  C   LIG    1       -2.349  -5.310   1.797  0.00  0.00    +0.070 C 
ENDBRANCH   8   9
ENDBRANCH   1   8
TORSDOF 6
ENDMDL
MODEL      402
REMARK  Name = ZINC000001693413
REMARK                            x       y       z     vdW  Elec       q    Type
REMARK                         _______ _______ _______ _____ _____    ______ ____
ROOT
ATOM      1  C   LIG    1       -2.014  -0.759   1.224  0.00  0.00    +0.190 A 
ATOM      2  C   LIG    1       -1.916  -2.027   1.836  0.00  0.00    -0.060 A 
ATOM      3  C   LIG    1       -1.175  -3.064   1.247  0.00  0.00    +0.030 A 
ATOM      4  C   LIG    1       -1.102  -4.275   1.866  0.00  0.00    -0.010 A 
ATOM      5  C   LIG    1       -1.752  -4.501   3.078  0.00  0.00    +0.010 A 
ATOM      6  C   LIG    1       -2.479  -3.519   3.677  0.00  0.00    +0.020 A 
ATOM      7  C   LIG    1       -2.577  -2.256   3.067  0.00  0.00    -0.050 A 
ATOM      8  C   LIG    1       -3.319  -1.218   3.658  0.00  0.00    +0.020 A 
ATOM      9  C   LIG    1       -3.397  -0.004   3.046  0.00  0.00    +0.010 A 
ATOM     10  C   LIG    1       -2.747   0.234   1.839  0.00  0.00    -0.010 A 
ENDROOT
BRANCH   1  11
ATOM     11  N   LIG    1       -1.372  -0.511   0.012  0.00  0.00    -0.680 N 
BRANCH  11  13
ATOM     12  C   LIG    1       -0.019   1.526   0.010  0.00  0.00    -0.010 C 
ATOM     13  C   LIG    1        0.002  -0.004   0.002  0.00  0.00    +0.270 C 
ENDBRANCH  11  13
BRANCH  11  14
ATOM     14  C   LIG    1       -2.072  -0.758  -1.251  0.00  0.00    +0.270 C 
ATOM     15  C   LIG    1       -1.816  -2.197  -1.703  0.00  0.00    -0.010 C 
ENDBRANCH  11  14
ENDBRANCH   1  11
TORSDOF 3
ENDMDL
MODEL      403
REMARK  Name = ZINC000000348837
REMARK                            x       y       z     vdW  Elec       q    Type
REMARK                         _______ _______ _______ _____ _____    ______ ____
ROOT
ATOM      1  C   LIG    1       -0.018   1.461   0.010  0.00  0.00    +0.320 C 
ATOM      2  N   LIG    1        0.002  -0.004   0.002  0.00  0.00    -0.580 N 
ATOM      3  C   LIG    1        0.007  -0.742  -1.197  0.00  0.00    +0.130 A 
ATOM      4  C   LIG    1       -0.495  -0.210  -2.368  0.00  0.00    -0.010 A 
ATOM      5  C   LIG    1       -0.477  -0.967  -3.528  0.00  0.00    +0.030 A 
ATOM      6  C   LIG    1        0.041  -2.248  -3.512  0.00  0.00    +0.010 A 
ATOM      7  C   LIG    1        0.545  -2.785  -2.340  0.00  0.00    +0.040 A 
ATOM      8  C   LIG    1        0.532  -2.035  -1.178  0.00  0.00    +0.060 A 
ATOM      9  O   LIG    1        1.033  -2.540  -0.017  0.00  0.00    -0.250 OA
ATOM     10  C   LIG    1        0.541  -2.049   1.154  0.00  0.00    +0.060 A 
ATOM     11  C   LIG    1        0.555  -2.815   2.305  0.00  0.00    +0.040 A 
ATOM     12  C   LIG    1        0.056  -2.293   3.486  0.00  0.00    +0.010 A 
ATOM     13  C   LIG    1       -0.455  -1.010   3.523  0.00  0.00    +0.030 A 
ATOM     14  C   LIG    1       -0.475  -0.237   2.374  0.00  0.00    -0.010 A 
ATOM     15  C   LIG    1        0.024  -0.755   1.193  0.00  0.00    +0.130 A 
ENDROOT
TORSDOF 0
ENDMDL
MODEL      404
REMARK  Name = ZINC000038068904
REMARK                            x       y       z     vdW  Elec       q    Type
REMARK                         _______ _______ _______ _____ _____    ______ ____
ROOT
ATOM      1  C   LIG    1        0.030  -2.819  -2.490  0.00  0.00    -0.110 A 
ATOM      2  C   LIG    1        0.020  -2.120  -3.696  0.00  0.00    +0.060 A 
ATOM      3  C   LIG    1        0.025  -2.808  -4.891  0.00  0.00    -0.080 A 
ATOM      4  C   LIG    1        0.038  -4.199  -4.893  0.00  0.00    +0.220 A 
ATOM      5  C   LIG    1        0.048  -4.897  -3.691  0.00  0.00    -0.080 A 
ATOM      6  C   LIG    1        0.049  -4.213  -2.494  0.00  0.00    +0.060 A 
ENDROOT
BRANCH   1  10
ATOM      7  C   LIG    1       -0.018   1.503   0.010  0.00  0.00    +0.090 C 
ATOM      8  C   LIG    1        0.002  -0.004   0.002  0.00  0.00    -0.080 A 
ATOM      9  C   LIG    1        0.006  -0.686  -1.198  0.00  0.00    -0.010 A 
ATOM     10  C   LIG    1        0.025  -2.080  -1.204  0.00  0.00    -0.020 A 
ATOM     11  C   LIG    1        0.041  -2.776   0.003  0.00  0.00    -0.010 A 
ATOM     12  C   LIG    1        0.037  -2.084   1.197  0.00  0.00    -0.080 A 
ATOM     13  C   LIG    1        0.054  -2.836   2.503  0.00  0.00    +0.090 C 
ATOM     14  C   LIG    1        0.023  -0.701   1.197  0.00  0.00    -0.010 A 
ENDBRANCH   1  10
BRANCH   4  15
ATOM     15  N   LIG    1        0.042  -4.894  -6.103  0.00  0.00    -0.880 N 
ATOM     16  H   LIG    1        0.052  -5.864  -6.105  0.00  0.00    +0.400 HD
ATOM     17  H   LIG    1        0.036  -4.407  -6.942  0.00  0.00    +0.400 HD
ENDBRANCH   4  15
TORSDOF 2
ENDMDL
MODEL      405
REMARK  Name = ZINC000038148210
REMARK                            x       y       z     vdW  Elec       q    Type
REMARK                         _______ _______ _______ _____ _____    ______ ____
ROOT
ATOM      1  C   LIG    1       -0.018   1.503   0.010  0.00  0.00    +0.130 C 
ATOM      2  C   LIG    1        0.002  -0.004   0.002  0.00  0.00    +0.170 A 
ATOM      3  C   LIG    1        0.005  -0.675  -1.218  0.00  0.00    -0.040 A 
ATOM      4  C   LIG    1        0.024  -2.041  -1.245  0.00  0.00    -0.020 A 
ATOM      5  C   LIG    1        0.040  -2.729  -0.018  0.00  0.00    -0.110 A 
ATOM      6  C   LIG    1        0.060  -4.133   0.033  0.00  0.00    +0.060 A 
ATOM      7  C   LIG    1        0.075  -4.762   1.240  0.00  0.00    +0.020 A 
ATOM      8  C   LIG    1        0.071  -4.031   2.428  0.00  0.00    -0.010 A 
ATOM      9  C   LIG    1        0.052  -2.670   2.415  0.00  0.00    +0.060 A 
ATOM     10 CL   LIG    1        0.091  -4.871   3.947  0.00  0.00    -0.060 Cl
ATOM     11  C   LIG    1        0.035  -1.984   1.188  0.00  0.00    +0.150 A 
ATOM     12  C   LIG    1        0.029  -2.790  -2.553  0.00  0.00    +0.120 C 
ATOM     13  N   LIG    1        0.022  -0.648   1.144  0.00  0.00    -0.480 NA
ENDROOT
TORSDOF 0
ENDMDL
MODEL      406
REMARK  Name = ZINC000038212635
REMARK                            x       y       z     vdW  Elec       q    Type
REMARK                         _______ _______ _______ _____ _____    ______ ____
ROOT
ATOM      1  C   LIG    1       -0.174   1.558   0.069  0.00  0.00    +0.090 C 
ATOM      2  C   LIG    1       -0.020   0.062  -0.024  0.00  0.00    -0.120 A 
ATOM      3  C   LIG    1       -0.080  -0.564  -1.254  0.00  0.00    +0.000 A 
ATOM      4  C   LIG    1        0.060  -1.937  -1.340  0.00  0.00    +0.000 A 
ATOM      5  C   LIG    1        0.262  -2.688  -0.197  0.00  0.00    +0.000 A 
ATOM      6  C   LIG    1        0.324  -2.068   1.036  0.00  0.00    -0.070 A 
ATOM      7  C   LIG    1        0.543  -2.888   2.282  0.00  0.00    +0.090 C 
ATOM      8  C   LIG    1        0.188  -0.689   1.126  0.00  0.00    +0.100 A 
ENDROOT
BRANCH   8   9
ATOM      9  N   LIG    1        0.250  -0.059   2.371  0.00  0.00    -0.640 N 
ATOM     10  H   LIG    1       -0.387   0.722   2.413  0.00  0.00    +0.350 HD
BRANCH   9  11
ATOM     11  C   LIG    1        1.623   0.364   2.680  0.00  0.00    +0.110 C 
ATOM     12  C   LIG    1        2.544  -0.857   2.679  0.00  0.00    +0.040 C 
ATOM     13  C   LIG    1        1.654   1.026   4.059  0.00  0.00    +0.040 C 
ATOM     14  C   LIG    1        2.099   1.363   1.623  0.00  0.00    -0.010 C 
ENDBRANCH   9  11
ENDBRANCH   8   9
TORSDOF 2
ENDMDL
MODEL      407
REMARK  Name = ZINC000095611665
REMARK                            x       y       z     vdW  Elec       q    Type
REMARK                         _______ _______ _______ _____ _____    ______ ____
ROOT
ATOM      1  C   LIG    1        0.053   0.077  -2.417  0.00  0.00    +0.010 C 
ATOM      2  C   LIG    1        0.078  -0.586  -3.588  0.00  0.00    +0.000 C 
ENDROOT
BRANCH   2   3
ATOM      3  C   LIG    1        0.098  -2.058  -3.601  0.00  0.00    -0.060 A 
ATOM      4  C   LIG    1       -0.665  -2.779  -2.678  0.00  0.00    +0.020 A 
ATOM      5  C   LIG    1       -0.641  -4.158  -2.696  0.00  0.00    +0.000 A 
ATOM      6  C   LIG    1        0.136  -4.828  -3.625  0.00  0.00    +0.000 A 
ATOM      7  C   LIG    1        0.894  -4.121  -4.542  0.00  0.00    +0.000 A 
ATOM      8  C   LIG    1        0.875  -2.742  -4.541  0.00  0.00    +0.010 A 
ENDBRANCH   2   3
BRANCH   1  11
ATOM      9  C   LIG    1       -0.241   1.460   0.021  0.00  0.00    +0.070 C 
ATOM     10  C   LIG    1        0.040  -0.021   0.005  0.00  0.00    -0.110 C 
ATOM     11  C   LIG    1        0.176  -0.660  -1.156  0.00  0.00    -0.040 C 
ATOM     12  C   LIG    1        0.167  -0.778   1.302  0.00  0.00    +0.080 C 
ENDBRANCH   1  11
TORSDOF 2
ENDMDL
MODEL      408
REMARK  Name = ZINC000095892815
REMARK                            x       y       z     vdW  Elec       q    Type
REMARK                         _______ _______ _______ _____ _____    ______ ____
ROOT
ATOM      1 CL   LIG    1        0.002  -0.004   0.002  0.00  0.00    -0.090 Cl
ATOM      2  C   LIG    1       -0.022   1.798   0.012  0.00  0.00    +0.000 C 
ATOM      3  C   LIG    1        0.495   2.499   1.282  0.00  0.00    +0.030 C 
ATOM      4  C   LIG    1        0.146   3.963   1.549  0.00  0.00    +0.040 C 
ATOM      5  C   LIG    1        1.267   4.797   2.192  0.00  0.00    +0.080 C 
ATOM      6  C   LIG    1        2.623   4.198   1.781  0.00  0.00    -0.060 C 
ATOM      7  C   LIG    1        3.141   4.257   0.547  0.00  0.00    -0.050 C 
ATOM      8  C   LIG    1        2.341   4.851  -0.630  0.00  0.00    +0.080 C 
ATOM      9  C   LIG    1        1.262   3.802  -0.804  0.00  0.00    +0.020 C 
ATOM     10 CL   LIG    1       -1.407   2.567  -0.846  0.00  0.00    -0.090 Cl
ATOM     11  C   LIG    1        1.322   2.526   0.003  0.00  0.00    +0.040 C 
ENDROOT
TORSDOF 0
ENDMDL
MODEL      409
REMARK  Name = ZINC000217506245
REMARK                            x       y       z     vdW  Elec       q    Type
REMARK                         _______ _______ _______ _____ _____    ______ ____
ROOT
ATOM      1  F   LIG    1        0.002  -0.004   0.002  0.00  0.00    -0.130 F 
ATOM      2  C   LIG    1       -0.016   1.347   0.009  0.00  0.00    +0.090 A 
ATOM      3  C   LIG    1       -1.226   2.022   0.030  0.00  0.00    +0.030 A 
ATOM      4  C   LIG    1       -1.252   3.405   0.038  0.00  0.00    +0.030 A 
ATOM      5  C   LIG    1       -0.070   4.120   0.025  0.00  0.00    +0.100 A 
ATOM      6  C   LIG    1        1.152   3.446   0.004  0.00  0.00    -0.030 A 
ATOM      7  F   LIG    1       -0.097   5.471   0.032  0.00  0.00    -0.130 F 
ATOM      8  C   LIG    1        1.172   2.053   0.002  0.00  0.00    +0.040 A 
ENDROOT
BRANCH   6   9
ATOM      9  C   LIG    1        2.424   4.209  -0.010  0.00  0.00    -0.080 A 
ATOM     10  C   LIG    1        2.660   5.216  -0.872  0.00  0.00    -0.020 A 
ATOM     11  S   LIG    1        4.266   5.872  -0.585  0.00  0.00    +0.130 S 
ATOM     12  C   LIG    1        4.541   4.723   0.718  0.00  0.00    -0.040 A 
ATOM     13  C   LIG    1        3.471   3.947   0.871  0.00  0.00    +0.020 A 
ENDBRANCH   6   9
TORSDOF 1
ENDMDL
MODEL      410
REMARK  Name = ZINC000096334437
REMARK                            x       y       z     vdW  Elec       q    Type
REMARK                         _______ _______ _______ _____ _____    ______ ____
ROOT
ATOM      1 CL   LIG    1        0.002  -0.004   0.002  0.00  0.00    -0.040 Cl
ATOM      2  C   LIG    1       -0.021   1.732   0.012  0.00  0.00    -0.050 C 
ATOM      3  C   LIG    1       -1.168   2.373   0.021  0.00  0.00    -0.070 C 
ATOM      4  C   LIG    1       -1.343   3.873   0.023  0.00  0.00    +0.080 C 
ATOM      5  C   LIG    1       -2.852   4.160   0.013  0.00  0.00    +0.020 C 
ATOM      6  C   LIG    1       -3.532   2.848   0.451  0.00  0.00    +0.000 C 
ATOM      7  C   LIG    1       -4.799   2.649  -0.404  0.00  0.00    +0.010 C 
ATOM      8  C   LIG    1       -4.524   1.451  -1.335  0.00  0.00    +0.020 C 
ATOM      9  C   LIG    1       -2.978   1.384  -1.423  0.00  0.00    +0.030 C 
ATOM     10  C   LIG    1       -2.535   1.739   0.024  0.00  0.00    +0.030 C 
ATOM     11 CL   LIG    1        1.470   2.620   0.002  0.00  0.00    -0.040 Cl
ENDROOT
TORSDOF 0
ENDMDL
MODEL      411
REMARK  Name = ZINC000096334438
REMARK                            x       y       z     vdW  Elec       q    Type
REMARK                         _______ _______ _______ _____ _____    ______ ____
ROOT
ATOM      1 CL   LIG    1        0.002  -0.004   0.002  0.00  0.00    -0.030 Cl
ATOM      2  C   LIG    1       -0.021   1.732   0.012  0.00  0.00    -0.050 C 
ATOM      3  C   LIG    1       -1.168   2.373   0.021  0.00  0.00    -0.070 C 
ATOM      4  C   LIG    1       -1.394   3.892   0.023  0.00  0.00    +0.090 C 
ATOM      5  C   LIG    1       -2.932   4.102  -0.148  0.00  0.00    +0.050 C 
ATOM      6  C   LIG    1       -3.341   2.814  -0.847  0.00  0.00    -0.020 C 
ATOM      7  C   LIG    1       -4.737   2.233  -0.691  0.00  0.00    +0.030 C 
ATOM      8  C   LIG    1       -4.478   0.705  -0.890  0.00  0.00    +0.020 C 
ATOM      9  C   LIG    1       -2.989   0.470  -0.492  0.00  0.00    +0.040 C 
ATOM     10  C   LIG    1       -2.521   1.796   0.024  0.00  0.00    +0.010 C 
ATOM     11 CL   LIG    1        1.470   2.620   0.002  0.00  0.00    -0.040 Cl
ENDROOT
TORSDOF 0
ENDMDL
MODEL      412
REMARK  Name = ZINC000096334441
REMARK                            x       y       z     vdW  Elec       q    Type
REMARK                         _______ _______ _______ _____ _____    ______ ____
ROOT
ATOM      1 CL   LIG    1        0.002  -0.004   0.002  0.00  0.00    -0.040 Cl
ATOM      2  C   LIG    1       -0.021   1.732   0.012  0.00  0.00    -0.050 C 
ATOM      3  C   LIG    1       -1.168   2.373   0.021  0.00  0.00    -0.070 C 
ATOM      4  C   LIG    1       -1.347   3.875   0.023  0.00  0.00    +0.080 C 
ATOM      5  C   LIG    1       -2.787   4.133  -0.457  0.00  0.00    +0.030 C 
ATOM      6  C   LIG    1       -3.577   2.883  -0.025  0.00  0.00    +0.000 C 
ATOM      7  C   LIG    1       -4.034   3.082   1.441  0.00  0.00    +0.020 C 
ATOM      8  C   LIG    1       -4.010   1.646   2.019  0.00  0.00    +0.010 C 
ATOM      9  C   LIG    1       -2.774   0.997   1.364  0.00  0.00    +0.030 C 
ATOM     10  C   LIG    1       -2.537   1.742   0.024  0.00  0.00    +0.030 C 
ATOM     11 CL   LIG    1        1.470   2.620   0.002  0.00  0.00    -0.040 Cl
ENDROOT
TORSDOF 0
ENDMDL
MODEL      413
REMARK  Name = ZINC000096334440
REMARK                            x       y       z     vdW  Elec       q    Type
REMARK                         _______ _______ _______ _____ _____    ______ ____
ROOT
ATOM      1 CL   LIG    1        0.002  -0.004   0.002  0.00  0.00    -0.030 Cl
ATOM      2  C   LIG    1       -0.021   1.732   0.012  0.00  0.00    -0.050 C 
ATOM      3  C   LIG    1       -1.168   2.373   0.021  0.00  0.00    -0.070 C 
ATOM      4  C   LIG    1       -1.392   3.892   0.023  0.00  0.00    +0.090 C 
ATOM      5  C   LIG    1       -2.925   4.104   0.236  0.00  0.00    +0.050 C 
ATOM      6  C   LIG    1       -3.311   2.815   0.935  0.00  0.00    -0.020 C 
ATOM      7  C   LIG    1       -4.701   2.233   0.912  0.00  0.00    +0.030 C 
ATOM      8  C   LIG    1       -4.474   0.692   0.868  0.00  0.00    +0.020 C 
ATOM      9  C   LIG    1       -2.935   0.491   0.680  0.00  0.00    +0.030 C 
ATOM     10  C   LIG    1       -2.526   1.792   0.024  0.00  0.00    +0.020 C 
ATOM     11 CL   LIG    1        1.470   2.620   0.002  0.00  0.00    -0.040 Cl
ENDROOT
TORSDOF 0
ENDMDL
MODEL      414
REMARK  Name = ZINC000002173790
REMARK                            x       y       z     vdW  Elec       q    Type
REMARK                         _______ _______ _______ _____ _____    ______ ____
ROOT
ATOM      1  C   LIG    1        0.606  -0.607  -1.056  0.00  0.00    +0.130 A 
ATOM      2  C   LIG    1        1.173   0.161  -2.062  0.00  0.00    -0.080 A 
ATOM      3  C   LIG    1        1.786  -0.455  -3.136  0.00  0.00    +0.040 A 
ATOM      4  C   LIG    1        1.835  -1.835  -3.209  0.00  0.00    -0.040 A 
ATOM      5  C   LIG    1        1.270  -2.602  -2.207  0.00  0.00    +0.060 A 
ATOM      6  C   LIG    1        0.661  -1.992  -1.128  0.00  0.00    -0.100 A 
ENDROOT
BRANCH   6   7
ATOM      7  C   LIG    1        0.046  -2.829  -0.036  0.00  0.00    +0.080 C 
ATOM      8  C   LIG    1        1.106  -3.688   0.589  0.00  0.00    -0.040 C 
ATOM      9  C   LIG    1        0.940  -4.934   0.899  0.00  0.00    -0.060 C 
ATOM     10  C   LIG    1       -0.332  -5.696   0.667  0.00  0.00    +0.050 C 
ATOM     11  C   LIG    1       -1.492  -4.726   0.429  0.00  0.00    +0.020 C 
ATOM     12  C   LIG    1       -1.058  -3.707  -0.630  0.00  0.00    +0.030 C 
ENDBRANCH   6   7
BRANCH   1  14
ATOM     13  C   LIG    1       -0.017   1.425   0.010  0.00  0.00    +0.250 C 
ATOM     14  O   LIG    1        0.002  -0.004   0.002  0.00  0.00    -0.320 OA
ENDBRANCH   1  14
TORSDOF 2
ENDMDL
MODEL      415
REMARK  Name = ZINC000039281428
REMARK                            x       y       z     vdW  Elec       q    Type
REMARK                         _______ _______ _______ _____ _____    ______ ____
ROOT
ATOM      1  C   LIG    1       -1.526  -2.312   0.131  0.00  0.00    -0.070 A 
ATOM      2  C   LIG    1       -0.314  -2.901  -0.209  0.00  0.00    +0.000 A 
ATOM      3  C   LIG    1       -0.218  -4.275  -0.302  0.00  0.00    +0.050 A 
ATOM      4  C   LIG    1       -1.326  -5.066  -0.058  0.00  0.00    +0.020 A 
ATOM      5  C   LIG    1       -2.535  -4.483   0.280  0.00  0.00    -0.020 A 
ATOM      6 CL   LIG    1       -3.924  -5.480   0.585  0.00  0.00    -0.060 Cl
ATOM      7  C   LIG    1       -2.637  -3.108   0.382  0.00  0.00    +0.050 A 
ENDROOT
BRANCH   1   8
ATOM      8  S   LIG    1       -1.652  -0.558   0.252  0.00  0.00    -0.100 S 
BRANCH   8  10
ATOM      9  C   LIG    1        0.074  -0.249  -1.847  0.00  0.00    +0.050 C 
ATOM     10  C   LIG    1       -0.035   0.009  -0.343  0.00  0.00    +0.020 C 
ATOM     11  C   LIG    1        0.112   1.508  -0.070  0.00  0.00    +0.080 C 
ENDBRANCH   8  10
ENDBRANCH   1   8
TORSDOF 2
ENDMDL
MODEL      416
REMARK  Name = ZINC000002149858
REMARK                            x       y       z     vdW  Elec       q    Type
REMARK                         _______ _______ _______ _____ _____    ______ ____
ROOT
ATOM      1  C   LIG    1        2.071  -4.304  -0.041  0.00  0.00    +0.030 C 
ENDROOT
BRANCH   1   2
ATOM      2  C   LIG    1        2.409  -2.812  -0.036  0.00  0.00    +0.110 C 
BRANCH   2   3
ATOM      3  C   LIG    1        1.134  -2.008  -0.020  0.00  0.00    +0.460 C 
ATOM      4  O   LIG    1        0.065  -2.571  -0.012  0.00  0.00    -0.490 OA
BRANCH   3   5
ATOM      5  O   LIG    1        1.186  -0.666  -0.013  0.00  0.00    -0.290 OA
BRANCH   5   7
ATOM      6  C   LIG    1       -0.016   1.313   0.009  0.00  0.00    +0.030 C 
ATOM      7  C   LIG    1        0.002  -0.004   0.002  0.00  0.00    +0.140 C 
ENDBRANCH   5   7
ENDBRANCH   3   5
ENDBRANCH   2   3
ENDBRANCH   1   2
BRANCH   1   8
ATOM      8  C   LIG    1        3.366  -5.120  -0.058  0.00  0.00    +0.000 C 
BRANCH   8   9
ATOM      9  C   LIG    1        3.028  -6.612  -0.062  0.00  0.00    +0.020 C 
BRANCH   9  10
ATOM     10  C   LIG    1        4.322  -7.428  -0.079  0.00  0.00    +0.010 C 
BRANCH  10  11
ATOM     11  C   LIG    1        3.985  -8.920  -0.084  0.00  0.00    -0.070 C 
ATOM     12  C   LIG    1        3.180  -9.265   1.171  0.00  0.00    +0.010 C 
ATOM     13  C   LIG    1        5.279  -9.736  -0.101  0.00  0.00    +0.010 C 
ATOM     14  C   LIG    1        3.157  -9.252  -1.327  0.00  0.00    +0.010 C 
ENDBRANCH  10  11
ENDBRANCH   9  10
ENDBRANCH   8   9
ENDBRANCH   1   8
TORSDOF 8
ENDMDL
MODEL      417
REMARK  Name = ZINC000002020140
REMARK                            x       y       z     vdW  Elec       q    Type
REMARK                         _______ _______ _______ _____ _____    ______ ____
ROOT
ATOM      1  C   LIG    1       -2.328  -2.876   0.009  0.00  0.00    -0.050 C 
ATOM      2  C   LIG    1       -3.165  -2.554  -1.231  0.00  0.00    +0.060 C 
ATOM      3  C   LIG    1       -3.141  -2.567   1.268  0.00  0.00    +0.060 C 
ENDROOT
BRANCH   1   4
ATOM      4  C   LIG    1       -1.075  -2.038   0.001  0.00  0.00    +0.470 C 
ATOM      5  O   LIG    1        0.009  -2.572  -0.012  0.00  0.00    -0.490 OA
BRANCH   4   6
ATOM      6  O   LIG    1       -1.164  -0.699   0.009  0.00  0.00    -0.290 OA
BRANCH   6   8
ATOM      7  C   LIG    1       -0.016   1.313   0.009  0.00  0.00    +0.030 C 
ATOM      8  C   LIG    1        0.002  -0.004   0.002  0.00  0.00    +0.140 C 
ENDBRANCH   6   8
ENDBRANCH   4   6
ENDBRANCH   1   4
BRANCH   1   9
ATOM      9  C   LIG    1       -1.950  -4.359  -0.003  0.00  0.00    +0.040 C 
BRANCH   9  10
ATOM     10  C   LIG    1       -3.222  -5.209   0.005  0.00  0.00    +0.020 C 
BRANCH  10  11
ATOM     11  C   LIG    1       -2.844  -6.692  -0.007  0.00  0.00    +0.000 C 
BRANCH  11  12
ATOM     12  C   LIG    1       -4.115  -7.543   0.001  0.00  0.00    +0.000 C 
BRANCH  12  13
ATOM     13  C   LIG    1       -3.737  -9.025  -0.011  0.00  0.00    -0.010 C 
ATOM     14  C   LIG    1       -5.009  -9.876  -0.003  0.00  0.00    +0.000 C 
ENDBRANCH  12  13
ENDBRANCH  11  12
ENDBRANCH  10  11
ENDBRANCH   9  10
ENDBRANCH   1   9
TORSDOF 8
ENDMDL
MODEL      418
REMARK  Name = ZINC000039369361
REMARK                            x       y       z     vdW  Elec       q    Type
REMARK                         _______ _______ _______ _____ _____    ______ ____
ROOT
ATOM      1  C   LIG    1       -1.412  -0.526   0.013  0.00  0.00    -0.080 A 
ATOM      2  C   LIG    1       -1.844  -1.327   1.053  0.00  0.00    +0.020 A 
ATOM      3  C   LIG    1       -3.139  -1.807   1.065  0.00  0.00    -0.010 A 
ATOM      4  C   LIG    1       -4.007  -1.483   0.033  0.00  0.00    +0.100 A 
ATOM      5  C   LIG    1       -3.571  -0.678  -1.010  0.00  0.00    -0.010 A 
ATOM      6  C   LIG    1       -2.276  -0.197  -1.015  0.00  0.00    +0.030 A 
ENDROOT
BRANCH   1   8
ATOM      7  C   LIG    1       -0.019   1.526   0.010  0.00  0.00    +0.050 C 
ATOM      8  C   LIG    1        0.002  -0.004   0.002  0.00  0.00    -0.020 C 
ATOM      9  C   LIG    1        0.718  -0.497  -1.257  0.00  0.00    +0.010 C 
ATOM     10  C   LIG    1        2.154   0.032  -1.268  0.00  0.00    +0.010 C 
ATOM     11  C   LIG    1        2.894  -0.475  -0.028  0.00  0.00    +0.000 C 
ATOM     12  C   LIG    1        2.178   0.019   1.231  0.00  0.00    +0.010 C 
ATOM     13  C   LIG    1        0.742  -0.511   1.242  0.00  0.00    +0.030 C 
ENDBRANCH   1   8
BRANCH   4  14
ATOM     14  O   LIG    1       -5.282  -1.953   0.043  0.00  0.00    -0.500 OA
ATOM     15  H   LIG    1       -5.912  -1.371   0.490  0.00  0.00    +0.390 HD
ENDBRANCH   4  14
TORSDOF 2
ENDMDL
MODEL      419
REMARK  Name = ZINC000039642465
REMARK                            x       y       z     vdW  Elec       q    Type
REMARK                         _______ _______ _______ _____ _____    ______ ____
ROOT
ATOM      1  C   LIG    1       -0.539   1.495   0.130  0.00  0.00    +0.100 C 
ATOM      2  C   LIG    1       -0.275   0.013   0.061  0.00  0.00    -0.080 A 
ATOM      3  C   LIG    1       -0.397  -0.656  -1.141  0.00  0.00    +0.030 A 
ATOM      4  C   LIG    1       -0.154  -2.017  -1.205  0.00  0.00    -0.030 A 
ATOM      5  C   LIG    1        0.213  -2.710  -0.066  0.00  0.00    +0.030 A 
ATOM      6  C   LIG    1        0.337  -2.045   1.139  0.00  0.00    -0.090 A 
ATOM      7  C   LIG    1        0.736  -2.800   2.380  0.00  0.00    +0.110 C 
ATOM      8 CL   LIG    1       -0.308  -2.855  -2.718  0.00  0.00    -0.070 Cl
ATOM      9  C   LIG    1        0.098  -0.680   1.204  0.00  0.00    +0.100 A 
ENDROOT
BRANCH   9  10
ATOM     10  O   LIG    1        0.220  -0.023   2.388  0.00  0.00    -0.320 OA
BRANCH  10  11
ATOM     11  C   LIG    1        1.532   0.401   2.763  0.00  0.00    +0.150 C 
ATOM     12  C   LIG    1        1.682   0.311   4.283  0.00  0.00    +0.050 C 
ATOM     13  C   LIG    1        1.747   1.848   2.314  0.00  0.00    +0.020 C 
ENDBRANCH  10  11
ENDBRANCH   9  10
TORSDOF 2
ENDMDL
MODEL      420
REMARK  Name = ZINC000002039279
REMARK                            x       y       z     vdW  Elec       q    Type
REMARK                         _______ _______ _______ _____ _____    ______ ____
ROOT
ATOM      1  C   LIG    1       -1.268  -0.760   0.010  0.00  0.00    -0.070 A 
ATOM      2  C   LIG    1       -2.487  -0.082   0.020  0.00  0.00    +0.010 A 
ATOM      3  C   LIG    1       -3.669  -0.794   0.027  0.00  0.00    +0.010 A 
ATOM      4  C   LIG    1       -3.647  -2.178   0.026  0.00  0.00    -0.070 A 
ATOM      5  C   LIG    1       -2.441  -2.856   0.016  0.00  0.00    +0.010 A 
ATOM      6  C   LIG    1       -1.252  -2.156   0.002  0.00  0.00    +0.010 A 
ENDROOT
BRANCH   4   7
ATOM      7  C   LIG    1       -4.941  -2.949   0.035  0.00  0.00    -0.030 C 
ATOM      8  C   LIG    1       -5.740  -2.591   1.290  0.00  0.00    +0.040 C 
ATOM      9  C   LIG    1       -4.641  -4.449   0.031  0.00  0.00    +0.030 C 
ATOM     10  C   LIG    1       -5.758  -2.589  -1.208  0.00  0.00    +0.040 C 
ENDBRANCH   4   7
BRANCH   1  12
ATOM     11  C   LIG    1       -0.016   1.321   0.009  0.00  0.00    +0.030 C 
ATOM     12  C   LIG    1        0.002  -0.004   0.002  0.00  0.00    +0.000 C 
ENDBRANCH   1  12
TORSDOF 2
ENDMDL
MODEL      421
REMARK  Name = ZINC000002525165
REMARK                            x       y       z     vdW  Elec       q    Type
REMARK                         _______ _______ _______ _____ _____    ______ ____
ROOT
ATOM      1  C   LIG    1       -2.540  -0.239   0.233  0.00  0.00    -0.020 A 
ATOM      2  C   LIG    1       -3.901   0.065   0.183  0.00  0.00    -0.020 A 
ATOM      3  C   LIG    1       -4.832  -0.951   0.110  0.00  0.00    +0.050 A 
ATOM      4  C   LIG    1       -4.421  -2.271   0.086  0.00  0.00    -0.070 A 
ATOM      5  C   LIG    1       -3.069  -2.582   0.135  0.00  0.00    +0.140 A 
ATOM      6  C   LIG    1       -2.126  -1.570   0.203  0.00  0.00    -0.020 A 
ENDROOT
BRANCH   1   8
ATOM      7  C   LIG    1       -1.937   2.112   0.340  0.00  0.00    +0.040 C 
ATOM      8  C   LIG    1       -1.541   0.847   0.311  0.00  0.00    +0.000 C 
ENDBRANCH   1   8
BRANCH   5   9
ATOM      9  O   LIG    1       -2.670  -3.881   0.110  0.00  0.00    -0.310 OA
BRANCH   9  10
ATOM     10  C   LIG    1       -3.696  -4.876   0.132  0.00  0.00    +0.110 C 
ATOM     11  C   LIG    1       -4.573  -4.676   1.370  0.00  0.00    +0.020 C 
ATOM     12  C   LIG    1       -3.058  -6.266   0.178  0.00  0.00    +0.080 C 
ATOM     13  C   LIG    1       -4.555  -4.750  -1.127  0.00  0.00    +0.020 C 
ENDBRANCH   9  10
ENDBRANCH   5   9
TORSDOF 3
ENDMDL
MODEL      422
REMARK  Name = ZINC000001852610
REMARK                            x       y       z     vdW  Elec       q    Type
REMARK                         _______ _______ _______ _____ _____    ______ ____
ROOT
ATOM      1  C   LIG    1        1.292  -0.726  -0.014  0.00  0.00    -0.040 A 
ATOM      2  C   LIG    1        2.492  -0.014  -0.016  0.00  0.00    +0.040 A 
ATOM      3  C   LIG    1        3.694  -0.693  -0.031  0.00  0.00    +0.060 A 
ATOM      4  C   LIG    1        3.710  -2.076  -0.045  0.00  0.00    -0.040 A 
ATOM      5  C   LIG    1        2.522  -2.789  -0.043  0.00  0.00    -0.030 A 
ATOM      6 CL   LIG    1        2.552  -4.525  -0.059  0.00  0.00    -0.050 Cl
ATOM      7 CL   LIG    1        5.226  -2.923  -0.063  0.00  0.00    -0.050 Cl
ATOM      8  C   LIG    1        1.314  -2.121  -0.022  0.00  0.00    +0.060 A 
ENDROOT
BRANCH   1  10
ATOM      9  C   LIG    1       -0.016   1.321   0.009  0.00  0.00    +0.050 C 
ATOM     10  C   LIG    1        0.002  -0.004   0.002  0.00  0.00    -0.010 C 
ENDBRANCH   1  10
TORSDOF 1
ENDMDL
MODEL      423
REMARK  Name = ZINC000001688878
REMARK                            x       y       z     vdW  Elec       q    Type
REMARK                         _______ _______ _______ _____ _____    ______ ____
ROOT
ATOM      1  C   LIG    1       -1.267  -0.760   0.010  0.00  0.00    -0.060 A 
ATOM      2  C   LIG    1       -2.486  -0.079   0.020  0.00  0.00    +0.020 A 
ATOM      3  C   LIG    1       -3.668  -0.784   0.027  0.00  0.00    +0.020 A 
ATOM      4  C   LIG    1       -3.649  -2.179   0.026  0.00  0.00    -0.050 A 
ATOM      5  C   LIG    1       -2.432  -2.860   0.016  0.00  0.00    +0.020 A 
ATOM      6  C   LIG    1       -1.248  -2.156   0.002  0.00  0.00    +0.020 A 
ENDROOT
BRANCH   4   7
ATOM      7  C   LIG    1       -4.923  -2.938   0.034  0.00  0.00    -0.050 A 
ATOM      8  C   LIG    1       -6.141  -2.260   0.037  0.00  0.00    +0.020 A 
ATOM      9  C   LIG    1       -7.324  -2.971   0.045  0.00  0.00    +0.000 A 
ATOM     10  C   LIG    1       -7.302  -4.354   0.050  0.00  0.00    +0.000 A 
ATOM     11  C   LIG    1       -6.096  -5.032   0.047  0.00  0.00    +0.010 A 
ATOM     12  C   LIG    1       -4.907  -4.332   0.033  0.00  0.00    +0.020 A 
ENDBRANCH   4   7
BRANCH   1  14
ATOM     13  C   LIG    1       -0.016   1.322   0.009  0.00  0.00    +0.030 C 
ATOM     14  C   LIG    1        0.002  -0.004   0.002  0.00  0.00    +0.000 C 
ENDBRANCH   1  14
TORSDOF 2
ENDMDL
MODEL      424
REMARK  Name = ZINC000002516976
REMARK                            x       y       z     vdW  Elec       q    Type
REMARK                         _______ _______ _______ _____ _____    ______ ____
ROOT
ATOM      1  C   LIG    1        0.452  -1.894   0.137  0.00  0.00    -0.100 A 
ATOM      2  C   LIG    1        1.396  -0.868   0.198  0.00  0.00    +0.060 A 
ATOM      3  C   LIG    1        2.741  -1.169   0.165  0.00  0.00    -0.020 A 
ATOM      4  C   LIG    1        3.157  -2.491   0.071  0.00  0.00    +0.140 A 
ATOM      5  C   LIG    1        2.220  -3.514   0.010  0.00  0.00    -0.070 A 
ATOM      6  C   LIG    1        0.874  -3.222   0.048  0.00  0.00    +0.060 A 
ENDROOT
BRANCH   1   8
ATOM      7  C   LIG    1       -1.390  -0.315   0.257  0.00  0.00    +0.010 C 
ATOM      8  C   LIG    1       -0.991  -1.577   0.172  0.00  0.00    +0.010 C 
ENDBRANCH   1   8
BRANCH   4   9
ATOM      9  O   LIG    1        4.483  -2.783   0.039  0.00  0.00    -0.310 OA
BRANCH   9  10
ATOM     10  C   LIG    1        4.843  -4.166   0.039  0.00  0.00    +0.110 C 
ATOM     11  C   LIG    1        4.241  -4.849   1.269  0.00  0.00    +0.020 C 
ATOM     12  C   LIG    1        6.367  -4.296   0.078  0.00  0.00    +0.080 C 
ATOM     13  C   LIG    1        4.306  -4.833  -1.229  0.00  0.00    +0.020 C 
ENDBRANCH   9  10
ENDBRANCH   4   9
TORSDOF 3
ENDMDL
MODEL      425
REMARK  Name = ZINC000003073404
REMARK                            x       y       z     vdW  Elec       q    Type
REMARK                         _______ _______ _______ _____ _____    ______ ____
ROOT
ATOM      1  N   LIG    1       -1.189  -0.718   0.115  0.00  0.00    -0.400 N 
ATOM      2  C   LIG    1       -2.366  -0.083   0.125  0.00  0.00    +0.240 A 
ATOM      3  S   LIG    1       -3.602  -1.342   0.281  0.00  0.00    +0.150 S 
ATOM      4  C   LIG    1       -2.444  -2.679   0.324  0.00  0.00    -0.160 A 
ATOM      5  C   LIG    1       -2.604  -4.048   0.435  0.00  0.00    +0.090 A 
ATOM      6  C   LIG    1       -1.495  -4.873   0.442  0.00  0.00    +0.050 A 
ATOM      7  C   LIG    1       -0.233  -4.317   0.338  0.00  0.00    +0.060 A 
ATOM      8  C   LIG    1       -0.069  -2.955   0.228  0.00  0.00    +0.040 A 
ATOM      9  S   LIG    1       -2.626   1.605   0.011  0.00  0.00    -0.440 S 
ATOM     10  C   LIG    1       -1.179  -2.098   0.212  0.00  0.00    +0.100 A 
ENDROOT
BRANCH   1  12
ATOM     11  C   LIG    1        0.102   1.201   0.529  0.00  0.00    +0.140 C 
ATOM     12  C   LIG    1        0.002  -0.004   0.002  0.00  0.00    +0.130 C 
ENDBRANCH   1  12
TORSDOF 1
ENDMDL
MODEL      426
REMARK  Name = ZINC000001599516
REMARK                            x       y       z     vdW  Elec       q    Type
REMARK                         _______ _______ _______ _____ _____    ______ ____
ROOT
ATOM      1  N   LIG    1        1.217  -0.684  -0.013  0.00  0.00    -0.460 N 
ATOM      2  C   LIG    1        2.259  -0.425  -0.888  0.00  0.00    +0.140 A 
ATOM      3  C   LIG    1        3.310  -1.308  -0.599  0.00  0.00    -0.100 A 
ATOM      4  C   LIG    1        2.855  -2.146   0.526  0.00  0.00    -0.100 A 
ATOM      5  C   LIG    1        3.442  -3.185   1.244  0.00  0.00    +0.070 A 
ATOM      6  C   LIG    1        2.745  -3.789   2.268  0.00  0.00    -0.020 A 
ATOM      7  C   LIG    1        1.465  -3.362   2.588  0.00  0.00    +0.050 A 
ATOM      8  C   LIG    1        0.874  -2.333   1.887  0.00  0.00    -0.020 A 
ATOM      9  C   LIG    1        4.488  -1.258  -1.340  0.00  0.00    +0.070 A 
ATOM     10  C   LIG    1        4.617  -0.338  -2.359  0.00  0.00    -0.020 A 
ATOM     11  C   LIG    1        3.580   0.536  -2.646  0.00  0.00    +0.050 A 
ATOM     12  C   LIG    1        2.409   0.497  -1.920  0.00  0.00    -0.020 A 
ATOM     13  C   LIG    1        1.561  -1.713   0.849  0.00  0.00    +0.140 A 
ENDROOT
BRANCH   1  15
ATOM     14  C   LIG    1       -0.016   1.315   0.009  0.00  0.00    +0.040 C 
ATOM     15  C   LIG    1        0.002  -0.004   0.002  0.00  0.00    +0.200 C 
ENDBRANCH   1  15
TORSDOF 1
ENDMDL
MODEL      427
REMARK  Name = ZINC000041051207
REMARK                            x       y       z     vdW  Elec       q    Type
REMARK                         _______ _______ _______ _____ _____    ______ ____
ROOT
ATOM      1  C   LIG    1       -0.018   1.503   0.010  0.00  0.00    +0.090 C 
ATOM      2  C   LIG    1        0.002  -0.004   0.002  0.00  0.00    -0.120 A 
ATOM      3  C   LIG    1        0.006  -0.687  -1.200  0.00  0.00    +0.050 A 
ATOM      4  C   LIG    1        0.024  -2.069  -1.212  0.00  0.00    -0.040 A 
ATOM      5  C   LIG    1        0.039  -2.772  -0.016  0.00  0.00    +0.190 A 
ATOM      6  C   LIG    1        0.036  -2.083   1.193  0.00  0.00    +0.020 A 
ATOM      7  F   LIG    1        0.051  -2.763   2.360  0.00  0.00    -0.150 F 
ATOM      8  C   LIG    1        0.023  -0.700   1.197  0.00  0.00    +0.020 A 
ENDROOT
BRANCH   5   9
ATOM      9  N   LIG    1        0.058  -4.170  -0.025  0.00  0.00    -0.740 N 
ATOM     10  H   LIG    1        0.069  -4.661   0.812  0.00  0.00    +0.400 HD
BRANCH   9  11
ATOM     11  C   LIG    1        0.062  -4.894  -1.298  0.00  0.00    +0.260 C 
BRANCH  11  12
ATOM     12  C   LIG    1        0.084  -6.400  -1.029  0.00  0.00    -0.080 C 
ATOM     13  C   LIG    1        1.342  -6.758  -0.235  0.00  0.00    +0.030 C 
ATOM     14  C   LIG    1        0.088  -7.157  -2.359  0.00  0.00    +0.040 C 
ATOM     15  C   LIG    1       -1.157  -6.792  -0.223  0.00  0.00    +0.030 C 
ENDBRANCH  11  12
ENDBRANCH   9  11
ENDBRANCH   5   9
TORSDOF 3
ENDMDL
MODEL      428
REMARK  Name = ZINC000041051141
REMARK                            x       y       z     vdW  Elec       q    Type
REMARK                         _______ _______ _______ _____ _____    ______ ____
ROOT
ATOM      1  C   LIG    1       -0.018   1.503   0.010  0.00  0.00    +0.080 C 
ATOM      2  C   LIG    1        0.002  -0.004   0.002  0.00  0.00    -0.040 A 
ATOM      3  C   LIG    1        0.006  -0.688  -1.200  0.00  0.00    -0.060 A 
ATOM      4  C   LIG    1        0.025  -2.071  -1.212  0.00  0.00    +0.050 A 
ATOM      5  C   LIG    1        0.040  -2.773  -0.023  0.00  0.00    -0.170 A 
ATOM      6  C   LIG    1        0.036  -2.089   1.186  0.00  0.00    +0.220 A 
ATOM      7  C   LIG    1        0.061  -4.280  -0.037  0.00  0.00    +0.090 C 
ATOM      8  C   LIG    1        0.023  -0.700   1.195  0.00  0.00    -0.080 A 
ENDROOT
BRANCH   6   9
ATOM      9  N   LIG    1        0.052  -2.796   2.391  0.00  0.00    -0.750 N 
ATOM     10  H   LIG    1        0.066  -3.766   2.383  0.00  0.00    +0.400 HD
BRANCH   9  11
ATOM     11  C   LIG    1        0.048  -2.073   3.665  0.00  0.00    +0.250 C 
BRANCH  11  12
ATOM     12  C   LIG    1        0.068  -3.076   4.820  0.00  0.00    -0.080 C 
ATOM     13  C   LIG    1       -1.170  -3.972   4.739  0.00  0.00    +0.030 C 
ATOM     14  C   LIG    1        0.064  -2.321   6.151  0.00  0.00    +0.040 C 
ATOM     15  C   LIG    1        1.329  -3.938   4.727  0.00  0.00    +0.030 C 
ENDBRANCH  11  12
ENDBRANCH   9  11
ENDBRANCH   6   9
TORSDOF 3
ENDMDL
MODEL      429
REMARK  Name = ZINC000041051126
REMARK                            x       y       z     vdW  Elec       q    Type
REMARK                         _______ _______ _______ _____ _____    ______ ____
ROOT
ATOM      1  C   LIG    1       -0.018   1.503   0.010  0.00  0.00    +0.090 C 
ATOM      2  C   LIG    1        0.002  -0.004   0.002  0.00  0.00    -0.180 A 
ATOM      3  C   LIG    1        0.006  -0.687  -1.200  0.00  0.00    +0.090 A 
ATOM      4  C   LIG    1        0.024  -2.068  -1.211  0.00  0.00    -0.070 A 
ATOM      5  C   LIG    1        0.039  -2.772  -0.014  0.00  0.00    +0.240 A 
ATOM      6  C   LIG    1        0.036  -2.085   1.193  0.00  0.00    -0.100 A 
ATOM      7  C   LIG    1        0.023  -0.702   1.199  0.00  0.00    +0.140 A 
ATOM      8  F   LIG    1        0.020  -0.031   2.372  0.00  0.00    -0.140 F 
ENDROOT
BRANCH   5   9
ATOM      9  N   LIG    1        0.058  -4.169  -0.023  0.00  0.00    -0.740 N 
ATOM     10  H   LIG    1        0.061  -4.648  -0.866  0.00  0.00    +0.400 HD
BRANCH   9  11
ATOM     11  C   LIG    1        0.074  -4.910   1.241  0.00  0.00    +0.250 C 
BRANCH  11  12
ATOM     12  C   LIG    1        0.093  -6.412   0.951  0.00  0.00    -0.080 C 
ATOM     13  C   LIG    1       -1.155  -6.793   0.152  0.00  0.00    +0.030 C 
ATOM     14  C   LIG    1        0.110  -7.186   2.271  0.00  0.00    +0.040 C 
ATOM     15  C   LIG    1        1.343  -6.759   0.140  0.00  0.00    +0.030 C 
ENDBRANCH  11  12
ENDBRANCH   9  11
ENDBRANCH   5   9
TORSDOF 3
ENDMDL
MODEL      430
REMARK  Name = ZINC000041051066
REMARK                            x       y       z     vdW  Elec       q    Type
REMARK                         _______ _______ _______ _____ _____    ______ ____
ROOT
ATOM      1  C   LIG    1       -0.018   1.503   0.010  0.00  0.00    +0.070 C 
ATOM      2  C   LIG    1        0.002  -0.004   0.002  0.00  0.00    -0.140 A 
ATOM      3  C   LIG    1        0.006  -0.687  -1.200  0.00  0.00    +0.040 A 
ATOM      4  C   LIG    1        0.025  -2.068  -1.211  0.00  0.00    -0.070 A 
ATOM      5  C   LIG    1        0.041  -2.771  -0.013  0.00  0.00    +0.210 A 
ATOM      6  C   LIG    1        0.037  -2.081   1.193  0.00  0.00    -0.160 A 
ATOM      7  C   LIG    1        0.054  -2.839   2.495  0.00  0.00    +0.080 C 
ATOM      8  C   LIG    1        0.023  -0.700   1.197  0.00  0.00    +0.050 A 
ENDROOT
BRANCH   5   9
ATOM      9  N   LIG    1        0.060  -4.167  -0.021  0.00  0.00    -0.750 N 
ATOM     10  H   LIG    1        0.071  -4.657   0.817  0.00  0.00    +0.400 HD
BRANCH   9  11
ATOM     11  C   LIG    1        0.065  -4.893  -1.294  0.00  0.00    +0.250 C 
BRANCH  11  12
ATOM     12  C   LIG    1        0.087  -6.398  -1.022  0.00  0.00    -0.080 C 
ATOM     13  C   LIG    1        1.346  -6.755  -0.228  0.00  0.00    +0.030 C 
ATOM     14  C   LIG    1        0.092  -7.156  -2.352  0.00  0.00    +0.040 C 
ATOM     15  C   LIG    1       -1.153  -6.790  -0.216  0.00  0.00    +0.030 C 
ENDBRANCH  11  12
ENDBRANCH   9  11
ENDBRANCH   5   9
TORSDOF 3
ENDMDL
MODEL      431
REMARK  Name = ZINC000041051125
REMARK                            x       y       z     vdW  Elec       q    Type
REMARK                         _______ _______ _______ _____ _____    ______ ____
ROOT
ATOM      1  C   LIG    1        0.707  -0.490  -1.238  0.00  0.00    -0.140 A 
ATOM      2  C   LIG    1       -0.012  -0.718  -2.396  0.00  0.00    +0.050 A 
ATOM      3  C   LIG    1        0.631  -1.163  -3.534  0.00  0.00    -0.070 A 
ATOM      4  C   LIG    1        2.003  -1.382  -3.514  0.00  0.00    +0.210 A 
ATOM      5  C   LIG    1        2.723  -1.152  -2.349  0.00  0.00    -0.080 A 
ATOM      6  C   LIG    1        2.074  -0.702  -1.216  0.00  0.00    +0.050 A 
ENDROOT
BRANCH   1   8
ATOM      7  C   LIG    1       -0.019   1.526   0.010  0.00  0.00    +0.000 C 
ATOM      8  C   LIG    1        0.002  -0.004   0.002  0.00  0.00    +0.060 C 
ENDBRANCH   1   8
BRANCH   4   9
ATOM      9  N   LIG    1        2.656  -1.832  -4.664  0.00  0.00    -0.750 N 
ATOM     10  H   LIG    1        2.153  -1.992  -5.477  0.00  0.00    +0.400 HD
BRANCH   9  11
ATOM     11  C   LIG    1        4.103  -2.063  -4.641  0.00  0.00    +0.260 C 
BRANCH  11  12
ATOM     12  C   LIG    1        4.564  -2.549  -6.016  0.00  0.00    -0.080 C 
ATOM     13  C   LIG    1        3.845  -3.854  -6.364  0.00  0.00    +0.030 C 
ATOM     14  C   LIG    1        6.075  -2.789  -5.992  0.00  0.00    +0.040 C 
ATOM     15  C   LIG    1        4.233  -1.489  -7.069  0.00  0.00    +0.030 C 
ENDBRANCH  11  12
ENDBRANCH   9  11
ENDBRANCH   4   9
TORSDOF 4
ENDMDL
MODEL      432
REMARK  Name = ZINC000041051210
REMARK                            x       y       z     vdW  Elec       q    Type
REMARK                         _______ _______ _______ _____ _____    ______ ____
ROOT
ATOM      1  C   LIG    1       -0.018   1.503   0.010  0.00  0.00    +0.090 C 
ATOM      2  C   LIG    1        0.002  -0.004   0.002  0.00  0.00    -0.050 A 
ATOM      3  C   LIG    1        0.006  -0.688  -1.200  0.00  0.00    -0.020 A 
ATOM      4  C   LIG    1        0.025  -2.071  -1.212  0.00  0.00    +0.030 A 
ATOM      5  C   LIG    1        0.040  -2.774  -0.022  0.00  0.00    +0.010 A 
ATOM      6  C   LIG    1        0.037  -2.088   1.188  0.00  0.00    +0.190 A 
ATOM      7  F   LIG    1        0.059  -4.125  -0.035  0.00  0.00    -0.150 F 
ATOM      8  C   LIG    1        0.023  -0.700   1.196  0.00  0.00    -0.050 A 
ENDROOT
BRANCH   6   9
ATOM      9  N   LIG    1        0.053  -2.795   2.394  0.00  0.00    -0.740 N 
ATOM     10  H   LIG    1        0.066  -3.765   2.388  0.00  0.00    +0.400 HD
BRANCH   9  11
ATOM     11  C   LIG    1        0.050  -2.071   3.668  0.00  0.00    +0.260 C 
BRANCH  11  12
ATOM     12  C   LIG    1        0.070  -3.073   4.824  0.00  0.00    -0.080 C 
ATOM     13  C   LIG    1       -1.168  -3.970   4.744  0.00  0.00    +0.030 C 
ATOM     14  C   LIG    1        0.066  -2.317   6.154  0.00  0.00    +0.040 C 
ATOM     15  C   LIG    1        1.330  -3.935   4.731  0.00  0.00    +0.030 C 
ENDBRANCH  11  12
ENDBRANCH   9  11
ENDBRANCH   6   9
TORSDOF 3
ENDMDL
MODEL      433
REMARK  Name = ZINC000000398313
REMARK                            x       y       z     vdW  Elec       q    Type
REMARK                         _______ _______ _______ _____ _____    ______ ____
ROOT
ATOM      1  C   LIG    1        0.606  -0.607  -1.056  0.00  0.00    +0.140 A 
ATOM      2  C   LIG    1        1.173   0.161  -2.062  0.00  0.00    -0.060 A 
ATOM      3  C   LIG    1        1.786  -0.454  -3.137  0.00  0.00    -0.040 A 
ATOM      4  C   LIG    1        1.835  -1.835  -3.209  0.00  0.00    -0.070 A 
ATOM      5  C   LIG    1        1.270  -2.603  -2.206  0.00  0.00    +0.080 A 
ATOM      6 CL   LIG    1        2.606  -2.605  -4.561  0.00  0.00    -0.070 Cl
ATOM      7  C   LIG    1        2.403   0.380  -4.230  0.00  0.00    +0.110 C 
ATOM      8  C   LIG    1        0.661  -1.992  -1.128  0.00  0.00    -0.100 A 
ENDROOT
BRANCH   8   9
ATOM      9  C   LIG    1        0.046  -2.828  -0.035  0.00  0.00    +0.040 C 
ATOM     10  C   LIG    1        1.124  -3.709   0.600  0.00  0.00    +0.040 C 
ATOM     11  C   LIG    1       -1.053  -3.713  -0.628  0.00  0.00    +0.040 C 
ENDBRANCH   8   9
BRANCH   1  13
ATOM     12  C   LIG    1       -0.017   1.425   0.010  0.00  0.00    +0.240 C 
ATOM     13  O   LIG    1        0.002  -0.004   0.002  0.00  0.00    -0.310 OA
ENDBRANCH   1  13
TORSDOF 2
ENDMDL
MODEL      434
REMARK  Name = ZINC000001841047
REMARK                            x       y       z     vdW  Elec       q    Type
REMARK                         _______ _______ _______ _____ _____    ______ ____
ROOT
ATOM      1  C   LIG    1        1.728  -0.890  -3.158  0.00  0.00    -0.020 C 
ENDROOT
BRANCH   1   2
ATOM      2  C   LIG    1        3.228  -0.866  -3.005  0.00  0.00    +0.370 C 
ATOM      3  O   LIG    1        3.742  -0.105  -2.221  0.00  0.00    -0.450 OA
ATOM      4  C   LIG    1        4.084  -1.791  -3.830  0.00  0.00    +0.060 C 
ENDBRANCH   1   2
BRANCH   1   5
ATOM      5  C   LIG    1        1.076  -0.383  -1.870  0.00  0.00    +0.070 C 
BRANCH   5   8
ATOM      6  C   LIG    1        2.219   0.567   0.528  0.00  0.00    +0.080 C 
ATOM      7  C   LIG    1        1.971  -0.908   0.340  0.00  0.00    -0.110 C 
ATOM      8  C   LIG    1        1.377  -1.339  -0.745  0.00  0.00    -0.080 C 
ATOM      9  C   LIG    1        2.407  -1.886   1.401  0.00  0.00    +0.070 C 
ENDBRANCH   5   8
ENDBRANCH   1   5
BRANCH   1  10
ATOM     10  C   LIG    1        1.321   0.012  -4.325  0.00  0.00    +0.080 C 
BRANCH  10  11
ATOM     11  C   LIG    1        1.862  -0.556  -5.611  0.00  0.00    -0.070 C 
ATOM     12  C   LIG    1        2.599   0.188  -6.397  0.00  0.00    -0.120 C 
ATOM     13  C   LIG    1        3.257  -0.417  -7.610  0.00  0.00    +0.070 C 
ATOM     14  C   LIG    1        2.789   1.651  -6.088  0.00  0.00    +0.080 C 
ENDBRANCH  10  11
ENDBRANCH   1  10
TORSDOF 5
ENDMDL
MODEL      435
REMARK  Name = ZINC000050934988
REMARK                            x       y       z     vdW  Elec       q    Type
REMARK                         _______ _______ _______ _____ _____    ______ ____
ROOT
ATOM      1  C   LIG    1       -0.993  -2.276  -0.001  0.00  0.00    -0.050 C 
ATOM      2  C   LIG    1       -0.174  -2.641   1.239  0.00  0.00    +0.030 C 
ATOM      3  C   LIG    1       -0.197  -2.627  -1.260  0.00  0.00    +0.020 C 
ENDROOT
BRANCH   1   4
ATOM      4  C   LIG    1       -2.307  -3.058   0.008  0.00  0.00    -0.010 C 
ATOM      5  C   LIG    1       -3.126  -2.693  -1.232  0.00  0.00    +0.010 C 
ATOM      6  C   LIG    1       -4.441  -3.476  -1.224  0.00  0.00    +0.000 C 
ATOM      7  C   LIG    1       -4.141  -4.976  -1.234  0.00  0.00    +0.000 C 
ATOM      8  C   LIG    1       -3.322  -5.342   0.005  0.00  0.00    +0.000 C 
ATOM      9  C   LIG    1       -2.007  -4.559  -0.003  0.00  0.00    +0.010 C 
ENDBRANCH   1   4
BRANCH   1  10
ATOM     10  C   LIG    1       -1.293  -0.775   0.010  0.00  0.00    +0.030 C 
BRANCH  10  12
ATOM     11  C   LIG    1       -0.018   1.503   0.010  0.00  0.00    +0.050 C 
ATOM     12  C   LIG    1        0.002  -0.004   0.002  0.00  0.00    +0.350 C 
ATOM     13  O   LIG    1        1.056  -0.594  -0.011  0.00  0.00    -0.450 OA
ENDBRANCH  10  12
ENDBRANCH   1  10
TORSDOF 3
ENDMDL
MODEL      436
REMARK  Name = ZINC000002145542
REMARK                            x       y       z     vdW  Elec       q    Type
REMARK                         _______ _______ _______ _____ _____    ______ ____
ROOT
ATOM      1  C   LIG    1       -1.603  -2.724   0.843  0.00  0.00    -0.040 C 
ATOM      2  C   LIG    1       -0.530  -3.253  -0.111  0.00  0.00    +0.020 C 
ATOM      3  C   LIG    1       -0.571  -4.782  -0.128  0.00  0.00    +0.000 C 
ATOM      4  C   LIG    1       -0.308  -5.315   1.282  0.00  0.00    +0.000 C 
ATOM      5  C   LIG    1       -1.382  -4.787   2.236  0.00  0.00    +0.000 C 
ATOM      6  C   LIG    1       -1.340  -3.257   2.253  0.00  0.00    +0.010 C 
ENDROOT
BRANCH   1   7
ATOM      7  C   LIG    1       -1.562  -1.195   0.860  0.00  0.00    +0.040 C 
BRANCH   7   9
ATOM      8  C   LIG    1        0.097   0.739   1.430  0.00  0.00    +0.050 C 
ATOM      9  C   LIG    1       -0.204  -0.734   1.324  0.00  0.00    +0.350 C 
ATOM     10  O   LIG    1        0.643  -1.545   1.611  0.00  0.00    -0.450 OA
ENDBRANCH   7   9
ENDBRANCH   1   7
BRANCH   1  11
ATOM     11  C   LIG    1       -2.981  -3.192   0.369  0.00  0.00    +0.020 C 
BRANCH  11  12
ATOM     12  C   LIG    1       -3.172  -2.811  -1.100  0.00  0.00    -0.030 C 
ATOM     13  C   LIG    1       -3.474  -1.314  -1.203  0.00  0.00    +0.020 C 
ATOM     14  C   LIG    1       -4.338  -3.608  -1.687  0.00  0.00    +0.000 C 
ENDBRANCH  11  12
ENDBRANCH   1  11
TORSDOF 4
ENDMDL
MODEL      437
REMARK  Name = ZINC000006030824
REMARK                            x       y       z     vdW  Elec       q    Type
REMARK                         _______ _______ _______ _____ _____    ______ ____
ROOT
ATOM      1  C   LIG    1       -2.604  -3.099   0.277  0.00  0.00    +0.000 C 
ATOM      2  C   LIG    1       -3.117  -2.911  -1.152  0.00  0.00    -0.020 C 
ATOM      3  C   LIG    1       -4.388  -3.740  -1.351  0.00  0.00    +0.010 C 
ATOM      4  C   LIG    1       -4.075  -5.218  -1.112  0.00  0.00    +0.000 C 
ATOM      5  C   LIG    1       -3.562  -5.406   0.317  0.00  0.00    +0.010 C 
ATOM      6  C   LIG    1       -3.429  -1.432  -1.391  0.00  0.00    +0.010 C 
ATOM      7  C   LIG    1       -2.292  -4.577   0.516  0.00  0.00    -0.060 C 
ATOM      8  C   LIG    1       -1.778  -4.766   1.945  0.00  0.00    +0.010 C 
ATOM      9  C   LIG    1       -1.221  -5.039  -0.475  0.00  0.00    +0.020 C 
ENDROOT
BRANCH   1  10
ATOM     10  C   LIG    1       -1.333  -2.270   0.476  0.00  0.00    +0.030 C 
BRANCH  10  11
ATOM     11  C   LIG    1       -1.711  -0.810   0.731  0.00  0.00    +0.030 C 
BRANCH  11  13
ATOM     12  C   LIG    1       -0.574   1.453   1.362  0.00  0.00    +0.050 C 
ATOM     13  C   LIG    1       -0.472  -0.021   1.066  0.00  0.00    +0.350 C 
ATOM     14  O   LIG    1        0.604  -0.570   1.096  0.00  0.00    -0.460 OA
ENDBRANCH  11  13
ENDBRANCH  10  11
ENDBRANCH   1  10
TORSDOF 3
ENDMDL
MODEL      438
REMARK  Name = ZINC000002010911
REMARK                            x       y       z     vdW  Elec       q    Type
REMARK                         _______ _______ _______ _____ _____    ______ ____
ROOT
ATOM      1  C   LIG    1       -2.997  -3.190  -0.227  0.00  0.00    +0.040 C 
ATOM      2  C   LIG    1       -3.736  -2.930   1.053  0.00  0.00    -0.120 C 
ATOM      3  C   LIG    1       -3.946  -3.825   1.964  0.00  0.00    -0.060 C 
ATOM      4  C   LIG    1       -3.471  -5.245   1.873  0.00  0.00    +0.050 C 
ATOM      5  C   LIG    1       -3.104  -5.586   0.427  0.00  0.00    +0.020 C 
ATOM      6  C   LIG    1       -4.267  -1.540   1.292  0.00  0.00    +0.060 C 
ATOM      7  C   LIG    1       -2.185  -4.482  -0.110  0.00  0.00    -0.060 C 
ATOM      8  C   LIG    1       -1.015  -4.273   0.854  0.00  0.00    +0.020 C 
ATOM      9  C   LIG    1       -1.656  -4.879  -1.489  0.00  0.00    +0.030 C 
ENDROOT
BRANCH   1  10
ATOM     10  C   LIG    1       -2.052  -2.022  -0.513  0.00  0.00    +0.040 C 
BRANCH  10  11
ATOM     11  C   LIG    1       -1.820  -1.911  -2.022  0.00  0.00    +0.020 C 
BRANCH  11  13
ATOM     12  C   LIG    1       -0.680  -0.314  -3.742  0.00  0.00    +0.050 C 
ATOM     13  C   LIG    1       -1.041  -0.656  -2.320  0.00  0.00    +0.350 C 
ATOM     14  O   LIG    1       -0.705   0.074  -1.419  0.00  0.00    -0.460 OA
ENDBRANCH  11  13
ENDBRANCH  10  11
ENDBRANCH   1  10
TORSDOF 3
ENDMDL
MODEL      439
REMARK  Name = ZINC000006030814
REMARK                            x       y       z     vdW  Elec       q    Type
REMARK                         _______ _______ _______ _____ _____    ______ ____
ROOT
ATOM      1  C   LIG    1       -2.314  -3.063   0.008  0.00  0.00    +0.000 C 
ATOM      2  C   LIG    1       -3.076  -2.740   1.279  0.00  0.00    -0.020 C 
ATOM      3  C   LIG    1       -4.232  -3.694   1.542  0.00  0.00    +0.010 C 
ATOM      4  C   LIG    1       -3.762  -5.146   1.477  0.00  0.00    +0.000 C 
ATOM      5  C   LIG    1       -3.212  -5.427   0.081  0.00  0.00    +0.010 C 
ATOM      6  C   LIG    1       -2.148  -2.669   2.491  0.00  0.00    +0.010 C 
ATOM      7  C   LIG    1       -2.013  -4.535  -0.219  0.00  0.00    -0.050 C 
ATOM      8  C   LIG    1       -0.805  -4.982   0.610  0.00  0.00    +0.020 C 
ATOM      9  C   LIG    1       -1.647  -4.722  -1.707  0.00  0.00    +0.010 C 
ENDROOT
BRANCH   1  10
ATOM     10  C   LIG    1       -0.993  -2.276  -0.001  0.00  0.00    +0.040 C 
BRANCH  10  11
ATOM     11  C   LIG    1       -1.293  -0.775   0.010  0.00  0.00    +0.020 C 
BRANCH  11  13
ATOM     12  C   LIG    1       -0.018   1.503   0.010  0.00  0.00    +0.050 C 
ATOM     13  C   LIG    1        0.002  -0.004   0.002  0.00  0.00    +0.350 C 
ATOM     14  O   LIG    1        1.056  -0.594  -0.011  0.00  0.00    -0.460 OA
ENDBRANCH  11  13
ENDBRANCH  10  11
ENDBRANCH   1  10
TORSDOF 3
ENDMDL
MODEL      440
REMARK  Name = ZINC000002010910
REMARK                            x       y       z     vdW  Elec       q    Type
REMARK                         _______ _______ _______ _____ _____    ______ ____
ROOT
ATOM      1  C   LIG    1       -2.102  -3.121  -0.028  0.00  0.00    +0.040 C 
ATOM      2  C   LIG    1       -3.103  -2.906  -1.126  0.00  0.00    -0.120 C 
ATOM      3  C   LIG    1       -3.904  -3.821  -1.567  0.00  0.00    -0.060 C 
ATOM      4  C   LIG    1       -3.938  -5.229  -1.048  0.00  0.00    +0.050 C 
ATOM      5  C   LIG    1       -3.233  -5.309   0.307  0.00  0.00    +0.020 C 
ATOM      6  C   LIG    1       -3.178  -1.538  -1.755  0.00  0.00    +0.070 C 
ATOM      7  C   LIG    1       -1.870  -4.619   0.183  0.00  0.00    -0.060 C 
ATOM      8  C   LIG    1       -1.065  -4.834   1.466  0.00  0.00    +0.030 C 
ATOM      9  C   LIG    1       -1.107  -5.198  -1.011  0.00  0.00    +0.020 C 
ENDROOT
BRANCH   1  10
ATOM     10  C   LIG    1       -0.780  -2.451  -0.408  0.00  0.00    +0.040 C 
BRANCH  10  11
ATOM     11  C   LIG    1       -0.883  -0.944  -0.166  0.00  0.00    +0.020 C 
BRANCH  11  13
ATOM     12  C   LIG    1        0.633   1.180  -0.205  0.00  0.00    +0.050 C 
ATOM     13  C   LIG    1        0.465  -0.307  -0.383  0.00  0.00    +0.350 C 
ATOM     14  O   LIG    1        1.411  -0.988  -0.698  0.00  0.00    -0.460 OA
ENDBRANCH  11  13
ENDBRANCH  10  11
ENDBRANCH   1  10
TORSDOF 3
ENDMDL
MODEL      441
REMARK  Name = ZINC000002507854
REMARK                            x       y       z     vdW  Elec       q    Type
REMARK                         _______ _______ _______ _____ _____    ______ ____
ROOT
ATOM      1  C   LIG    1       -2.314  -3.062   0.008  0.00  0.00    +0.000 C 
ATOM      2  C   LIG    1       -3.099  -2.727  -1.245  0.00  0.00    -0.020 C 
ATOM      3  C   LIG    1       -4.261  -3.677  -1.496  0.00  0.00    +0.010 C 
ATOM      4  C   LIG    1       -3.791  -5.130  -1.454  0.00  0.00    +0.000 C 
ATOM      5  C   LIG    1       -3.214  -5.425  -0.072  0.00  0.00    +0.010 C 
ATOM      6  C   LIG    1       -2.196  -2.643  -2.474  0.00  0.00    +0.010 C 
ATOM      7  C   LIG    1       -2.008  -4.537   0.212  0.00  0.00    -0.050 C 
ATOM      8  C   LIG    1       -1.613  -4.740   1.691  0.00  0.00    +0.010 C 
ATOM      9  C   LIG    1       -0.819  -4.976  -0.645  0.00  0.00    +0.020 C 
ENDROOT
BRANCH   1  10
ATOM     10  C   LIG    1       -0.993  -2.276  -0.001  0.00  0.00    +0.040 C 
BRANCH  10  11
ATOM     11  C   LIG    1       -1.293  -0.775   0.010  0.00  0.00    +0.020 C 
BRANCH  11  13
ATOM     12  C   LIG    1       -0.018   1.503   0.010  0.00  0.00    +0.050 C 
ATOM     13  C   LIG    1        0.002  -0.004   0.002  0.00  0.00    +0.350 C 
ATOM     14  O   LIG    1        1.056  -0.594  -0.011  0.00  0.00    -0.460 OA
ENDBRANCH  11  13
ENDBRANCH  10  11
ENDBRANCH   1  10
TORSDOF 3
ENDMDL
MODEL      442
REMARK  Name = ZINC000006037492
REMARK                            x       y       z     vdW  Elec       q    Type
REMARK                         _______ _______ _______ _____ _____    ______ ____
ROOT
ATOM      1  C   LIG    1       -2.825  -3.162   0.005  0.00  0.00    +0.000 C 
ATOM      2  C   LIG    1       -2.986  -2.685   1.449  0.00  0.00    -0.020 C 
ATOM      3  C   LIG    1       -4.140  -3.440   2.111  0.00  0.00    +0.010 C 
ATOM      4  C   LIG    1       -3.840  -4.941   2.100  0.00  0.00    +0.000 C 
ATOM      5  C   LIG    1       -3.680  -5.418   0.655  0.00  0.00    +0.010 C 
ATOM      6  C   LIG    1       -3.286  -1.184   1.460  0.00  0.00    +0.010 C 
ATOM      7  C   LIG    1       -2.526  -4.662  -0.006  0.00  0.00    -0.060 C 
ATOM      8  C   LIG    1       -1.232  -4.929   0.766  0.00  0.00    +0.020 C 
ATOM      9  C   LIG    1       -2.365  -5.140  -1.451  0.00  0.00    +0.010 C 
ENDROOT
BRANCH   1  10
ATOM     10  C   LIG    1       -1.671  -2.406  -0.657  0.00  0.00    +0.030 C 
BRANCH  10  11
ATOM     11  C   LIG    1       -2.156  -1.027  -1.107  0.00  0.00    +0.020 C 
BRANCH  11  13
ATOM     12  C   LIG    1       -1.271   1.067  -2.390  0.00  0.00    +0.050 C 
ATOM     13  C   LIG    1       -1.047  -0.319  -1.841  0.00  0.00    +0.350 C 
ATOM     14  O   LIG    1        0.022  -0.862  -1.989  0.00  0.00    -0.460 OA
ENDBRANCH  11  13
ENDBRANCH  10  11
ENDBRANCH   1  10
TORSDOF 3
ENDMDL
MODEL      443
REMARK  Name = ZINC000001987198
REMARK                            x       y       z     vdW  Elec       q    Type
REMARK                         _______ _______ _______ _____ _____    ______ ____
ROOT
ATOM      1  C   LIG    1       -1.200  -0.637   0.010  0.00  0.00    +0.130 A 
ATOM      2  C   LIG    1       -2.374   0.104   0.020  0.00  0.00    -0.080 A 
ATOM      3  C   LIG    1       -3.595  -0.536   0.028  0.00  0.00    +0.060 A 
ATOM      4  C   LIG    1       -3.651  -1.928   0.027  0.00  0.00    -0.080 A 
ATOM      5  C   LIG    1       -2.471  -2.670   0.017  0.00  0.00    +0.060 A 
ATOM      6  C   LIG    1       -1.252  -2.025   0.003  0.00  0.00    -0.020 A 
ENDROOT
BRANCH   4   7
ATOM      7  C   LIG    1       -4.963  -2.620   0.036  0.00  0.00    -0.040 A 
ATOM      8  C   LIG    1       -6.144  -1.879   0.040  0.00  0.00    +0.010 A 
ATOM      9  C   LIG    1       -7.362  -2.528   0.048  0.00  0.00    +0.000 A 
ATOM     10  C   LIG    1       -7.413  -3.910   0.052  0.00  0.00    -0.090 A 
ATOM     11  C   LIG    1       -6.244  -4.650   0.049  0.00  0.00    +0.000 A 
ATOM     12  C   LIG    1       -8.746  -4.612   0.061  0.00  0.00    +0.090 C 
ATOM     13  C   LIG    1       -5.020  -4.012   0.035  0.00  0.00    +0.020 A 
ENDBRANCH   4   7
BRANCH   1  15
ATOM     14  C   LIG    1       -0.017   1.425   0.010  0.00  0.00    +0.250 C 
ATOM     15  O   LIG    1        0.002  -0.004   0.002  0.00  0.00    -0.320 OA
ENDBRANCH   1  15
TORSDOF 2
ENDMDL
MODEL      444
REMARK  Name = ZINC000001693411
REMARK                            x       y       z     vdW  Elec       q    Type
REMARK                         _______ _______ _______ _____ _____    ______ ____
ROOT
ATOM      1  C   LIG    1       -1.200  -0.637   0.010  0.00  0.00    +0.120 A 
ATOM      2  C   LIG    1       -2.375   0.101   0.019  0.00  0.00    -0.080 A 
ATOM      3  C   LIG    1       -3.596  -0.545   0.027  0.00  0.00    +0.040 A 
ATOM      4  C   LIG    1       -3.648  -1.927   0.026  0.00  0.00    -0.110 A 
ATOM      5  C   LIG    1       -2.479  -2.665   0.016  0.00  0.00    +0.060 A 
ATOM      6  C   LIG    1       -1.255  -2.024   0.003  0.00  0.00    -0.020 A 
ENDROOT
BRANCH   4   7
ATOM      7  C   LIG    1       -4.981  -2.629   0.035  0.00  0.00    +0.040 C 
ATOM      8  C   LIG    1       -5.105  -3.504  -1.214  0.00  0.00    +0.010 C 
ATOM      9  C   LIG    1       -6.459  -4.217  -1.205  0.00  0.00    +0.000 C 
ATOM     10  C   LIG    1       -6.565  -5.094   0.044  0.00  0.00    +0.000 C 
ATOM     11  C   LIG    1       -6.441  -4.219   1.293  0.00  0.00    +0.000 C 
ATOM     12  C   LIG    1       -5.087  -3.506   1.284  0.00  0.00    +0.010 C 
ENDBRANCH   4   7
BRANCH   1  14
ATOM     13  C   LIG    1       -0.017   1.425   0.010  0.00  0.00    +0.250 C 
ATOM     14  O   LIG    1        0.002  -0.004   0.002  0.00  0.00    -0.320 OA
ENDBRANCH   1  14
TORSDOF 2
ENDMDL
MODEL      445
REMARK  Name = ZINC000001708376
REMARK                            x       y       z     vdW  Elec       q    Type
REMARK                         _______ _______ _______ _____ _____    ______ ____
ROOT
ATOM      1  C   LIG    1        0.626  -0.618   1.041  0.00  0.00    +0.130 A 
ATOM      2  C   LIG    1        1.202   0.142   2.050  0.00  0.00    -0.080 A 
ATOM      3  C   LIG    1        1.835  -0.477   3.107  0.00  0.00    +0.050 A 
ATOM      4  C   LIG    1        1.897  -1.871   3.161  0.00  0.00    -0.090 A 
ATOM      5  C   LIG    1        1.316  -2.631   2.145  0.00  0.00    +0.060 A 
ATOM      6  C   LIG    1        0.680  -2.005   1.094  0.00  0.00    -0.020 A 
ENDROOT
BRANCH   4   7
ATOM      7  C   LIG    1        2.574  -2.539   4.292  0.00  0.00    -0.080 C 
ATOM      8  C   LIG    1        2.054  -2.405   5.488  0.00  0.00    -0.040 C 
ATOM      9  C   LIG    1        2.639  -3.019   6.727  0.00  0.00    +0.050 C 
ATOM     10  C   LIG    1        3.624  -4.128   6.350  0.00  0.00    +0.010 C 
ATOM     11  C   LIG    1        4.595  -3.579   5.297  0.00  0.00    +0.010 C 
ATOM     12  C   LIG    1        3.813  -3.335   4.002  0.00  0.00    +0.060 C 
ENDBRANCH   4   7
BRANCH   1  14
ATOM     13  C   LIG    1       -0.017   1.425   0.010  0.00  0.00    +0.250 C 
ATOM     14  O   LIG    1        0.002  -0.004   0.002  0.00  0.00    -0.320 OA
ENDBRANCH   1  14
TORSDOF 2
ENDMDL
MODEL      446
REMARK  Name = ZINC000043320439
REMARK                            x       y       z     vdW  Elec       q    Type
REMARK                         _______ _______ _______ _____ _____    ______ ____
ROOT
ATOM      1  C   LIG    1       -0.018   1.503   0.010  0.00  0.00    +0.100 C 
ATOM      2  C   LIG    1        0.002  -0.004   0.002  0.00  0.00    -0.200 A 
ATOM      3  C   LIG    1        0.006  -0.690  -1.199  0.00  0.00    +0.140 A 
ATOM      4  C   LIG    1        0.025  -2.075  -1.206  0.00  0.00    -0.080 A 
ATOM      5  C   LIG    1        0.040  -2.775  -0.014  0.00  0.00    +0.080 A 
ATOM      6  C   LIG    1        0.036  -2.095   1.189  0.00  0.00    -0.080 A 
ATOM      7  F   LIG    1       -0.009  -0.009  -2.366  0.00  0.00    -0.140 F 
ATOM      8  C   LIG    1        0.023  -0.706   1.200  0.00  0.00    +0.240 A 
ENDROOT
BRANCH   8   9
ATOM      9  N   LIG    1        0.020  -0.017   2.415  0.00  0.00    -0.740 N 
ATOM     10  H   LIG    1        0.011   0.953   2.422  0.00  0.00    +0.400 HD
BRANCH   9  11
ATOM     11  C   LIG    1        0.030  -0.758   3.678  0.00  0.00    +0.250 C 
BRANCH  11  12
ATOM     12  C   LIG    1        0.024   0.227   4.849  0.00  0.00    -0.080 C 
ATOM     13  C   LIG    1        1.265   1.119   4.771  0.00  0.00    +0.030 C 
ATOM     14  C   LIG    1        0.035  -0.548   6.168  0.00  0.00    +0.040 C 
ATOM     15  C   LIG    1       -1.234   1.096   4.777  0.00  0.00    +0.030 C 
ENDBRANCH  11  12
ENDBRANCH   9  11
ENDBRANCH   8   9
TORSDOF 3
ENDMDL
MODEL      447
REMARK  Name = ZINC000043319547
REMARK                            x       y       z     vdW  Elec       q    Type
REMARK                         _______ _______ _______ _____ _____    ______ ____
ROOT
ATOM      1  C   LIG    1       -0.018   1.503   0.010  0.00  0.00    +0.100 C 
ATOM      2  C   LIG    1        0.002  -0.004   0.002  0.00  0.00    -0.200 A 
ATOM      3  C   LIG    1        0.006  -0.690  -1.199  0.00  0.00    +0.140 A 
ATOM      4  C   LIG    1        0.025  -2.075  -1.206  0.00  0.00    -0.080 A 
ATOM      5  C   LIG    1        0.040  -2.775  -0.014  0.00  0.00    +0.080 A 
ATOM      6  C   LIG    1        0.036  -2.095   1.189  0.00  0.00    -0.080 A 
ATOM      7  F   LIG    1       -0.009  -0.009  -2.366  0.00  0.00    -0.140 F 
ATOM      8  C   LIG    1        0.023  -0.706   1.200  0.00  0.00    +0.250 A 
ENDROOT
BRANCH   8   9
ATOM      9  N   LIG    1        0.020  -0.017   2.415  0.00  0.00    -0.740 N 
ATOM     10  H   LIG    1        0.011   0.953   2.422  0.00  0.00    +0.400 HD
BRANCH   9  11
ATOM     11  C   LIG    1        0.030  -0.758   3.678  0.00  0.00    +0.230 C 
ATOM     12  C   LIG    1        1.472  -1.112   4.051  0.00  0.00    +0.020 C 
BRANCH  11  13
ATOM     13  C   LIG    1       -0.585   0.105   4.782  0.00  0.00    -0.020 C 
ATOM     14  C   LIG    1        0.231   1.390   4.938  0.00  0.00    +0.020 C 
ATOM     15  C   LIG    1       -0.574  -0.670   6.101  0.00  0.00    +0.030 C 
ENDBRANCH  11  13
ENDBRANCH   9  11
ENDBRANCH   8   9
TORSDOF 3
ENDMDL
MODEL      448
REMARK  Name = ZINC000043319506
REMARK                            x       y       z     vdW  Elec       q    Type
REMARK                         _______ _______ _______ _____ _____    ______ ____
ROOT
ATOM      1  C   LIG    1       -2.685   1.091   1.405  0.00  0.00    +0.250 A 
ATOM      2  C   LIG    1       -2.676   1.983   0.340  0.00  0.00    -0.080 A 
ATOM      3  C   LIG    1       -3.273   3.221   0.472  0.00  0.00    +0.080 A 
ATOM      4  C   LIG    1       -3.880   3.575   1.663  0.00  0.00    -0.080 A 
ATOM      5  C   LIG    1       -3.891   2.689   2.728  0.00  0.00    +0.140 A 
ATOM      6  F   LIG    1       -4.484   3.037   3.890  0.00  0.00    -0.140 F 
ATOM      7  C   LIG    1       -3.300   1.445   2.599  0.00  0.00    -0.200 A 
ATOM      8  C   LIG    1       -3.312   0.480   3.756  0.00  0.00    +0.100 C 
ENDROOT
BRANCH   1   9
ATOM      9  N   LIG    1       -2.082  -0.162   1.273  0.00  0.00    -0.730 N 
ATOM     10  H   LIG    1       -2.092  -0.785   2.016  0.00  0.00    +0.400 HD
BRANCH   9  11
ATOM     11  C   LIG    1       -1.433  -0.534   0.013  0.00  0.00    +0.230 C 
BRANCH  11  13
ATOM     12  C   LIG    1       -0.019   1.526   0.010  0.00  0.00    +0.020 C 
ATOM     13  C   LIG    1        0.002  -0.004   0.002  0.00  0.00    -0.010 C 
ENDBRANCH  11  13
BRANCH  11  14
ATOM     14  C   LIG    1       -1.416  -2.058  -0.121  0.00  0.00    +0.020 C 
ATOM     15  C   LIG    1       -2.850  -2.576  -0.236  0.00  0.00    +0.030 C 
ENDBRANCH  11  14
ENDBRANCH   9  11
ENDBRANCH   1   9
TORSDOF 4
ENDMDL
MODEL      449
REMARK  Name = ZINC000043319549
REMARK                            x       y       z     vdW  Elec       q    Type
REMARK                         _______ _______ _______ _____ _____    ______ ____
ROOT
ATOM      1  C   LIG    1       -0.018   1.503   0.010  0.00  0.00    +0.100 C 
ATOM      2  C   LIG    1        0.002  -0.004   0.002  0.00  0.00    -0.200 A 
ATOM      3  C   LIG    1        0.006  -0.690  -1.199  0.00  0.00    +0.140 A 
ATOM      4  C   LIG    1        0.025  -2.075  -1.206  0.00  0.00    -0.080 A 
ATOM      5  C   LIG    1        0.040  -2.775  -0.014  0.00  0.00    +0.080 A 
ATOM      6  C   LIG    1        0.036  -2.095   1.189  0.00  0.00    -0.080 A 
ATOM      7  F   LIG    1       -0.009  -0.009  -2.366  0.00  0.00    -0.140 F 
ATOM      8  C   LIG    1        0.023  -0.706   1.200  0.00  0.00    +0.250 A 
ENDROOT
BRANCH   8   9
ATOM      9  N   LIG    1        0.020  -0.017   2.415  0.00  0.00    -0.740 N 
ATOM     10  H   LIG    1        0.011   0.953   2.422  0.00  0.00    +0.400 HD
BRANCH   9  11
ATOM     11  C   LIG    1        0.030  -0.758   3.678  0.00  0.00    +0.230 C 
ATOM     12  C   LIG    1       -1.402  -1.139   4.058  0.00  0.00    +0.020 C 
BRANCH  11  13
ATOM     13  C   LIG    1        0.635   0.116   4.779  0.00  0.00    -0.030 C 
ATOM     14  C   LIG    1        2.067   0.496   4.399  0.00  0.00    +0.030 C 
ATOM     15  C   LIG    1        0.645  -0.658   6.098  0.00  0.00    +0.030 C 
ENDBRANCH  11  13
ENDBRANCH   9  11
ENDBRANCH   8   9
TORSDOF 3
ENDMDL
MODEL      450
REMARK  Name = ZINC000002510342
REMARK                            x       y       z     vdW  Elec       q    Type
REMARK                         _______ _______ _______ _____ _____    ______ ____
ROOT
ATOM      1  C   LIG    1        0.606  -0.607  -1.055  0.00  0.00    +0.160 A 
ATOM      2  C   LIG    1        0.658  -2.013  -1.135  0.00  0.00    -0.060 A 
ATOM      3  C   LIG    1        0.095  -2.822  -0.134  0.00  0.00    +0.060 A 
ATOM      4  C   LIG    1        0.165  -4.177  -0.245  0.00  0.00    +0.010 A 
ATOM      5  C   LIG    1        0.788  -4.776  -1.337  0.00  0.00    +0.030 A 
ATOM      6  C   LIG    1        1.345  -4.024  -2.325  0.00  0.00    +0.020 A 
ATOM      7  C   LIG    1        1.292  -2.622  -2.246  0.00  0.00    -0.010 A 
ATOM      8  C   LIG    1        1.856  -1.812  -3.248  0.00  0.00    -0.070 A 
ATOM      9  C   LIG    1        1.785  -0.456  -3.140  0.00  0.00    +0.080 A 
ATOM     10 CL   LIG    1        2.638  -2.538  -4.617  0.00  0.00    -0.060 Cl
ATOM     11  C   LIG    1        1.160   0.146  -2.051  0.00  0.00    -0.080 A 
ENDROOT
BRANCH   1  13
ATOM     12  C   LIG    1       -0.017   1.425   0.010  0.00  0.00    +0.250 C 
ATOM     13  O   LIG    1        0.002  -0.004   0.002  0.00  0.00    -0.310 OA
ENDBRANCH   1  13
TORSDOF 1
ENDMDL
MODEL      451
REMARK  Name = ZINC000035822655
REMARK                            x       y       z     vdW  Elec       q    Type
REMARK                         _______ _______ _______ _____ _____    ______ ____
ROOT
ATOM      1  C   LIG    1        0.606  -0.607  -1.056  0.00  0.00    +0.140 A 
ATOM      2  C   LIG    1        1.175   0.175  -2.065  0.00  0.00    -0.050 A 
ATOM      3  C   LIG    1        1.786  -0.401  -3.135  0.00  0.00    +0.080 A 
ATOM      4  C   LIG    1        1.851  -1.801  -3.236  0.00  0.00    -0.080 A 
ATOM      5  C   LIG    1        2.476  -2.424  -4.329  0.00  0.00    +0.040 A 
ATOM      6  C   LIG    1        2.522  -3.783  -4.395  0.00  0.00    +0.010 A 
ATOM      7  C   LIG    1        1.957  -4.570  -3.393  0.00  0.00    +0.030 A 
ATOM      8  C   LIG    1        1.343  -4.002  -2.320  0.00  0.00    +0.010 A 
ATOM      9  C   LIG    1        1.277  -2.602  -2.216  0.00  0.00    -0.010 A 
ATOM     10  C   LIG    1        0.656  -1.982  -1.119  0.00  0.00    -0.080 A 
ATOM     11 CL   LIG    1       -0.049  -2.941   0.145  0.00  0.00    -0.050 Cl
ENDROOT
BRANCH   1  13
ATOM     12  C   LIG    1       -0.017   1.425   0.010  0.00  0.00    +0.250 C 
ATOM     13  O   LIG    1        0.002  -0.004   0.002  0.00  0.00    -0.300 OA
ENDBRANCH   1  13
TORSDOF 1
ENDMDL
MODEL      452
REMARK  Name = ZINC000032232106
REMARK                            x       y       z     vdW  Elec       q    Type
REMARK                         _______ _______ _______ _____ _____    ______ ____
ROOT
ATOM      1  C   LIG    1       -1.200  -0.637   0.010  0.00  0.00    +0.140 A 
ATOM      2  C   LIG    1       -2.377   0.117   0.020  0.00  0.00    -0.060 A 
ATOM      3  C   LIG    1       -3.595  -0.488   0.028  0.00  0.00    +0.080 A 
ATOM      4  C   LIG    1       -3.677  -1.891   0.027  0.00  0.00    -0.090 A 
ATOM      5  C   LIG    1       -4.919  -2.549   0.035  0.00  0.00    +0.060 A 
ATOM      6  C   LIG    1       -4.962  -3.909   0.033  0.00  0.00    +0.020 A 
ATOM      7  C   LIG    1       -3.789  -4.664   0.023  0.00  0.00    -0.020 A 
ATOM      8  C   LIG    1       -2.568  -4.062   0.015  0.00  0.00    +0.030 A 
ATOM      9 CL   LIG    1       -3.888  -6.397   0.022  0.00  0.00    -0.070 Cl
ATOM     10  C   LIG    1       -2.485  -2.658   0.017  0.00  0.00    +0.000 A 
ATOM     11  C   LIG    1       -1.243  -2.003   0.003  0.00  0.00    -0.010 A 
ENDROOT
BRANCH   1  13
ATOM     12  C   LIG    1       -0.017   1.425   0.010  0.00  0.00    +0.240 C 
ATOM     13  O   LIG    1        0.002  -0.004   0.002  0.00  0.00    -0.320 OA
ENDBRANCH   1  13
TORSDOF 1
ENDMDL
MODEL      453
REMARK  Name = ZINC000033605573
REMARK                            x       y       z     vdW  Elec       q    Type
REMARK                         _______ _______ _______ _____ _____    ______ ____
ROOT
ATOM      1  C   LIG    1       -1.200  -0.637   0.010  0.00  0.00    +0.130 A 
ATOM      2  C   LIG    1       -2.377   0.117   0.020  0.00  0.00    -0.060 A 
ATOM      3  C   LIG    1       -3.595  -0.488   0.028  0.00  0.00    +0.080 A 
ATOM      4  C   LIG    1       -3.677  -1.891   0.026  0.00  0.00    -0.080 A 
ATOM      5  C   LIG    1       -4.919  -2.549   0.034  0.00  0.00    +0.060 A 
ATOM      6  C   LIG    1       -4.961  -3.910   0.032  0.00  0.00    -0.040 A 
ATOM      7  C   LIG    1       -3.787  -4.665   0.022  0.00  0.00    +0.040 A 
ATOM      8  C   LIG    1       -2.567  -4.062   0.014  0.00  0.00    +0.040 A 
ATOM      9 CL   LIG    1       -6.497  -4.719   0.041  0.00  0.00    -0.070 Cl
ATOM     10  C   LIG    1       -2.485  -2.659   0.016  0.00  0.00    -0.010 A 
ATOM     11  C   LIG    1       -1.243  -2.003   0.003  0.00  0.00    -0.010 A 
ENDROOT
BRANCH   1  13
ATOM     12  C   LIG    1       -0.017   1.425   0.010  0.00  0.00    +0.240 C 
ATOM     13  O   LIG    1        0.002  -0.004   0.002  0.00  0.00    -0.320 OA
ENDBRANCH   1  13
TORSDOF 1
ENDMDL
MODEL      454
REMARK  Name = ZINC000143070146
REMARK                            x       y       z     vdW  Elec       q    Type
REMARK                         _______ _______ _______ _____ _____    ______ ____
ROOT
ATOM      1  C   LIG    1       -1.267  -0.760   0.010  0.00  0.00    -0.060 A 
ATOM      2  C   LIG    1       -2.486  -0.079   0.019  0.00  0.00    +0.020 A 
ATOM      3  C   LIG    1       -3.668  -0.784   0.027  0.00  0.00    +0.020 A 
ATOM      4  C   LIG    1       -3.649  -2.179   0.025  0.00  0.00    -0.040 A 
ATOM      5  C   LIG    1       -2.432  -2.860   0.015  0.00  0.00    +0.020 A 
ATOM      6  C   LIG    1       -1.248  -2.156   0.002  0.00  0.00    +0.020 A 
ENDROOT
BRANCH   4   7
ATOM      7  C   LIG    1       -4.923  -2.938   0.032  0.00  0.00    -0.100 A 
ATOM      8  C   LIG    1       -4.917  -4.335   0.036  0.00  0.00    +0.080 A 
ATOM      9  C   LIG    1       -6.133  -4.997   0.043  0.00  0.00    -0.030 A 
ATOM     10  C   LIG    1       -7.304  -4.261   0.046  0.00  0.00    +0.130 A 
ATOM     11  N   LIG    1       -7.278  -2.942   0.043  0.00  0.00    -0.480 NA
ATOM     12  C   LIG    1       -8.630  -4.976   0.054  0.00  0.00    +0.130 C 
ATOM     13  C   LIG    1       -6.146  -2.269   0.041  0.00  0.00    +0.270 A 
ENDBRANCH   4   7
BRANCH   1  15
ATOM     14  C   LIG    1       -0.016   1.322   0.009  0.00  0.00    +0.040 C 
ATOM     15  C   LIG    1        0.002  -0.004   0.002  0.00  0.00    +0.000 C 
ENDBRANCH   1  15
TORSDOF 2
ENDMDL
MODEL      455
REMARK  Name = ZINC000004529157
REMARK                            x       y       z     vdW  Elec       q    Type
REMARK                         _______ _______ _______ _____ _____    ______ ____
ROOT
ATOM      1  C   LIG    1        0.606  -0.608  -1.056  0.00  0.00    +0.110 A 
ATOM      2  C   LIG    1        0.655  -1.988  -1.130  0.00  0.00    +0.040 A 
ATOM      3  C   LIG    1        1.275  -2.599  -2.215  0.00  0.00    -0.080 A 
ATOM      4  C   LIG    1        1.847  -1.822  -3.231  0.00  0.00    +0.050 A 
ATOM      5  O   LIG    1        2.378  -2.652  -4.158  0.00  0.00    -0.200 OA
ATOM      6  C   LIG    1        2.196  -3.949  -3.825  0.00  0.00    +0.090 A 
ATOM      7  C   LIG    1        2.558  -5.135  -4.452  0.00  0.00    +0.020 A 
ATOM      8  C   LIG    1        2.239  -6.346  -3.876  0.00  0.00    +0.060 A 
ATOM      9  C   LIG    1        1.556  -6.397  -2.671  0.00  0.00    -0.010 A 
ATOM     10  C   LIG    1        1.188  -5.230  -2.035  0.00  0.00    +0.070 A 
ATOM     11  C   LIG    1        1.789  -0.436  -3.142  0.00  0.00    +0.070 A 
ATOM     12  C   LIG    1        1.505  -4.003  -2.607  0.00  0.00    -0.130 A 
ATOM     13  C   LIG    1        1.169   0.163  -2.067  0.00  0.00    -0.030 A 
ENDROOT
BRANCH   1  15
ATOM     14  C   LIG    1       -0.017   1.425   0.010  0.00  0.00    +0.250 C 
ATOM     15  O   LIG    1        0.002  -0.004   0.002  0.00  0.00    -0.310 OA
ENDBRANCH   1  15
TORSDOF 1
ENDMDL
MODEL      456
REMARK  Name = ZINC000045027653
REMARK                            x       y       z     vdW  Elec       q    Type
REMARK                         _______ _______ _______ _____ _____    ______ ____
ROOT
ATOM      1  C   LIG    1        0.718  -0.497  -1.257  0.00  0.00    -0.050 C 
ATOM      2  C   LIG    1        0.630  -2.023  -1.329  0.00  0.00    +0.030 C 
ATOM      3  C   LIG    1        0.159  -2.442  -2.723  0.00  0.00    +0.010 C 
ATOM      4  C   LIG    1        1.245  -3.281  -3.398  0.00  0.00    +0.000 C 
ATOM      5  C   LIG    1        1.743  -2.558  -4.651  0.00  0.00    +0.010 C 
ATOM      6  C   LIG    1        3.204  -2.148  -4.456  0.00  0.00    +0.000 C 
ATOM      7  C   LIG    1        3.305  -0.622  -4.418  0.00  0.00    +0.010 C 
ATOM      8  C   LIG    1        3.824  -0.180  -3.049  0.00  0.00    +0.030 C 
ATOM      9  C   LIG    1        2.768   0.686  -2.358  0.00  0.00    +0.010 C 
ATOM     10  C   LIG    1        2.165  -0.079  -1.208  0.00  0.00    +0.370 C 
ATOM     11  O   LIG    1        2.842  -0.357  -0.247  0.00  0.00    -0.460 OA
ENDROOT
BRANCH   1  13
ATOM     12  C   LIG    1       -0.019   1.526   0.010  0.00  0.00    +0.010 C 
ATOM     13  C   LIG    1        0.002  -0.004   0.002  0.00  0.00    +0.020 C 
ENDBRANCH   1  13
TORSDOF 1
ENDMDL
MODEL      457
REMARK  Name = ZINC000045027654
REMARK                            x       y       z     vdW  Elec       q    Type
REMARK                         _______ _______ _______ _____ _____    ______ ____
ROOT
ATOM      1  C   LIG    1        0.606  -0.499  -1.314  0.00  0.00    -0.040 C 
ATOM      2  C   LIG    1        0.627  -2.029  -1.322  0.00  0.00    +0.030 C 
ATOM      3  C   LIG    1       -0.202  -2.556  -0.149  0.00  0.00    +0.010 C 
ATOM      4  C   LIG    1       -1.378  -3.376  -0.684  0.00  0.00    +0.000 C 
ATOM      5  C   LIG    1       -2.692  -2.705  -0.279  0.00  0.00    +0.010 C 
ATOM      6  C   LIG    1       -3.417  -2.206  -1.531  0.00  0.00    +0.000 C 
ATOM      7  C   LIG    1       -3.472  -0.677  -1.513  0.00  0.00    +0.000 C 
ATOM      8  C   LIG    1       -2.692  -0.124  -2.707  0.00  0.00    +0.030 C 
ATOM      9  C   LIG    1       -1.522   0.723  -2.204  0.00  0.00    +0.000 C 
ATOM     10  C   LIG    1       -0.227  -0.001  -2.467  0.00  0.00    +0.370 C 
ATOM     11  O   LIG    1        0.144  -0.183  -3.602  0.00  0.00    -0.460 OA
ENDROOT
BRANCH   1  13
ATOM     12  C   LIG    1        0.161   1.515   0.097  0.00  0.00    +0.010 C 
ATOM     13  C   LIG    1        0.002  -0.004   0.002  0.00  0.00    +0.030 C 
ENDBRANCH   1  13
TORSDOF 1
ENDMDL
MODEL      458
REMARK  Name = ZINC000000120208
REMARK                            x       y       z     vdW  Elec       q    Type
REMARK                         _______ _______ _______ _____ _____    ______ ____
ROOT
ATOM      1  C   LIG    1       -0.017   1.381   0.010  0.00  0.00    +0.030 A 
ATOM      2  C   LIG    1        1.169   2.091   0.002  0.00  0.00    +0.010 A 
ATOM      3  C   LIG    1        2.383   1.426  -0.011  0.00  0.00    +0.040 A 
ATOM      4  C   LIG    1        2.411   0.044  -0.016  0.00  0.00    +0.060 A 
ATOM      5  O   LIG    1        3.594  -0.631  -0.017  0.00  0.00    -0.250 OA
ATOM      6  C   LIG    1        3.612  -1.881  -0.556  0.00  0.00    +0.060 A 
ATOM      7  C   LIG    1        4.774  -2.405  -1.091  0.00  0.00    +0.040 A 
ATOM      8  C   LIG    1        4.770  -3.681  -1.630  0.00  0.00    +0.010 A 
ATOM      9  C   LIG    1        3.612  -4.434  -1.635  0.00  0.00    +0.030 A 
ATOM     10  C   LIG    1        2.443  -3.916  -1.102  0.00  0.00    -0.010 A 
ATOM     11  C   LIG    1        2.442  -2.643  -0.566  0.00  0.00    +0.130 A 
ATOM     12  N   LIG    1        1.271  -2.078  -0.026  0.00  0.00    -0.690 N 
ATOM     13  H   LIG    1        0.547  -2.625   0.316  0.00  0.00    +0.420 HD
ATOM     14  C   LIG    1        1.211  -0.671  -0.013  0.00  0.00    +0.130 A 
ATOM     15  C   LIG    1        0.002  -0.004   0.002  0.00  0.00    -0.010 A 
ENDROOT
TORSDOF 0
ENDMDL
MODEL      459
REMARK  Name = ZINC000000156694
REMARK                            x       y       z     vdW  Elec       q    Type
REMARK                         _______ _______ _______ _____ _____    ______ ____
ROOT
ATOM      1  S   LIG    1        3.934   1.635  -0.026  0.00  0.00    +0.020 S 
ENDROOT
BRANCH   1   2
ATOM      2  C   LIG    1        4.832   0.119  -0.044  0.00  0.00    -0.150 A 
ATOM      3  C   LIG    1        4.153  -1.091  -0.133  0.00  0.00    +0.070 A 
ATOM      4  C   LIG    1        4.860  -2.277  -0.147  0.00  0.00    +0.000 A 
ATOM      5  C   LIG    1        6.241  -2.262  -0.073  0.00  0.00    +0.040 A 
ATOM      6  C   LIG    1        6.919  -1.060   0.015  0.00  0.00    +0.000 A 
ATOM      7  C   LIG    1        6.220   0.131   0.023  0.00  0.00    +0.060 A 
ENDBRANCH   1   2
BRANCH   1  10
ATOM      8  C   LIG    1        3.169   3.257   3.502  0.00  0.00    -0.030 A 
ATOM      9  C   LIG    1        3.216   3.158   2.173  0.00  0.00    +0.030 A 
ATOM     10  C   LIG    1        3.772   1.979   1.694  0.00  0.00    -0.110 A 
ATOM     11  C   LIG    1        4.176   1.125   2.642  0.00  0.00    -0.060 A 
ATOM     12  S   LIG    1        3.853   1.810   4.230  0.00  0.00    +0.120 S 
ENDBRANCH   1  10
TORSDOF 2
ENDMDL
MODEL      460
REMARK  Name = ZINC000000161195
REMARK                            x       y       z     vdW  Elec       q    Type
REMARK                         _______ _______ _______ _____ _____    ______ ____
ROOT
ATOM      1  S   LIG    1        1.574  -2.276  -0.026  0.00  0.00    +0.130 S 
ENDROOT
BRANCH   1   5
ATOM      2  C   LIG    1        0.764   1.538  -0.862  0.00  0.00    +0.000 A 
ATOM      3  C   LIG    1        0.766   1.876   0.427  0.00  0.00    -0.010 A 
ATOM      4  S   LIG    1        1.103   0.459   1.413  0.00  0.00    +0.150 S 
ATOM      5  C   LIG    1        1.228  -0.549  -0.023  0.00  0.00    -0.270 A 
ATOM      6  C   LIG    1        1.018   0.201  -1.117  0.00  0.00    +0.100 A 
ENDBRANCH   1   5
BRANCH   1   7
ATOM      7  C   LIG    1        3.327  -2.329  -0.194  0.00  0.00    -0.230 A 
ATOM      8  C   LIG    1        4.057  -3.444  -0.352  0.00  0.00    +0.040 A 
ATOM      9  C   LIG    1        5.421  -3.232  -0.462  0.00  0.00    +0.030 A 
ATOM     10  C   LIG    1        5.801  -1.956  -0.394  0.00  0.00    -0.040 A 
ATOM     11  S   LIG    1        4.390  -0.927  -0.187  0.00  0.00    +0.130 S 
ENDBRANCH   1   7
TORSDOF 2
ENDMDL
MODEL      461
REMARK  Name = ZINC000000161156
REMARK                            x       y       z     vdW  Elec       q    Type
REMARK                         _______ _______ _______ _____ _____    ______ ____
ROOT
ATOM      1  S   LIG    1        1.574  -2.276  -0.026  0.00  0.00    +0.050 S 
ENDROOT
BRANCH   1   2
ATOM      2  C   LIG    1        3.324  -2.478  -0.043  0.00  0.00    -0.160 A 
ATOM      3  C   LIG    1        4.154  -1.366   0.042  0.00  0.00    +0.070 A 
ATOM      4  C   LIG    1        5.525  -1.528   0.028  0.00  0.00    +0.000 A 
ATOM      5  C   LIG    1        6.073  -2.794  -0.071  0.00  0.00    +0.050 A 
ATOM      6  C   LIG    1        5.250  -3.903  -0.157  0.00  0.00    +0.000 A 
ATOM      7  C   LIG    1        3.878  -3.749  -0.137  0.00  0.00    +0.070 A 
ENDBRANCH   1   2
BRANCH   1  11
ATOM      8  C   LIG    1       -0.159  -2.194  -3.617  0.00  0.00    +0.030 A 
ATOM      9  C   LIG    1        1.018  -2.214  -4.243  0.00  0.00    -0.040 A 
ATOM     10  S   LIG    1        2.319  -2.258  -3.062  0.00  0.00    +0.120 S 
ATOM     11  C   LIG    1        1.161  -2.246  -1.738  0.00  0.00    -0.210 A 
ATOM     12  C   LIG    1       -0.086  -2.212  -2.234  0.00  0.00    +0.020 A 
ENDBRANCH   1  11
TORSDOF 2
ENDMDL
MODEL      462
REMARK  Name = ZINC000000161196
REMARK                            x       y       z     vdW  Elec       q    Type
REMARK                         _______ _______ _______ _____ _____    ______ ____
ROOT
ATOM      1  S   LIG    1        1.574  -2.276  -0.025  0.00  0.00    +0.080 S 
ENDROOT
BRANCH   1   5
ATOM      2  C   LIG    1       -0.016   1.381   0.017  0.00  0.00    +0.020 A 
ATOM      3  C   LIG    1        1.185   1.960   0.016  0.00  0.00    -0.040 A 
ATOM      4  S   LIG    1        2.439   0.728  -0.002  0.00  0.00    +0.120 S 
ATOM      5  C   LIG    1        1.229  -0.548  -0.007  0.00  0.00    -0.220 A 
ATOM      6  C   LIG    1        0.003  -0.004   0.004  0.00  0.00    +0.020 A 
ENDBRANCH   1   5
BRANCH   1   7
ATOM      7  C   LIG    1        3.328  -2.328  -0.193  0.00  0.00    -0.170 A 
ATOM      8  C   LIG    1        4.150  -2.441   0.858  0.00  0.00    +0.040 A 
ATOM      9  S   LIG    1        5.818  -2.460   0.301  0.00  0.00    +0.140 S 
ATOM     10  C   LIG    1        5.296  -2.311  -1.371  0.00  0.00    -0.040 A 
ATOM     11  C   LIG    1        3.964  -2.263  -1.425  0.00  0.00    +0.050 A 
ENDBRANCH   1   7
TORSDOF 2
ENDMDL
MODEL      463
REMARK  Name = ZINC000000262400
REMARK                            x       y       z     vdW  Elec       q    Type
REMARK                         _______ _______ _______ _____ _____    ______ ____
ROOT
ATOM      1  C   LIG    1       -0.017   1.379   0.010  0.00  0.00    +0.030 A 
ATOM      2  C   LIG    1        1.169   2.090   0.002  0.00  0.00    +0.030 A 
ATOM      3  C   LIG    1        2.380   1.420  -0.013  0.00  0.00    +0.040 A 
ATOM      4  C   LIG    1        2.405   0.036  -0.021  0.00  0.00    +0.050 A 
ATOM      5  O   LIG    1        3.594  -0.624  -0.035  0.00  0.00    -0.240 OA
ATOM      6  C   LIG    1        3.615  -1.984  -0.042  0.00  0.00    +0.050 A 
ATOM      7  C   LIG    1        4.824  -2.659  -0.055  0.00  0.00    +0.040 A 
ATOM      8  C   LIG    1        4.843  -4.043  -0.061  0.00  0.00    +0.030 A 
ATOM      9  C   LIG    1        3.657  -4.753  -0.054  0.00  0.00    +0.030 A 
ATOM     10  C   LIG    1        2.446  -4.084  -0.041  0.00  0.00    +0.040 A 
ATOM     11  C   LIG    1        2.421  -2.700  -0.034  0.00  0.00    +0.050 A 
ATOM     12  O   LIG    1        1.232  -2.039  -0.020  0.00  0.00    -0.240 OA
ATOM     13  C   LIG    1        1.211  -0.679  -0.013  0.00  0.00    +0.050 A 
ATOM     14  C   LIG    1        0.002  -0.004   0.002  0.00  0.00    +0.040 A 
ENDROOT
TORSDOF 0
ENDMDL
MODEL      464
REMARK  Name = ZINC000000345307
REMARK                            x       y       z     vdW  Elec       q    Type
REMARK                         _______ _______ _______ _____ _____    ______ ____
ROOT
ATOM      1  S   LIG    1        0.002  -0.004   0.002  0.00  0.00    -0.260 S 
ATOM      2  C   LIG    1       -0.021   1.708   0.011  0.00  0.00    -0.040 A 
ATOM      3  S   LIG    1       -1.450   2.721   0.038  0.00  0.00    +0.170 S 
ATOM      4  C   LIG    1       -0.745   4.332   0.037  0.00  0.00    -0.150 A 
ATOM      5  C   LIG    1       -1.446   5.553   0.054  0.00  0.00    +0.080 A 
ATOM      6  C   LIG    1       -0.782   6.755   0.051  0.00  0.00    +0.060 A 
ATOM      7  C   LIG    1        0.602   6.774   0.031  0.00  0.00    +0.060 A 
ATOM      8  C   LIG    1        1.299   5.591   0.014  0.00  0.00    +0.080 A 
ATOM      9  C   LIG    1        0.632   4.351   0.017  0.00  0.00    -0.150 A 
ATOM     10  S   LIG    1        1.380   2.760   0.004  0.00  0.00    +0.170 S 
ENDROOT
TORSDOF 0
ENDMDL
MODEL      465
REMARK  Name = ZINC000095611648
REMARK                            x       y       z     vdW  Elec       q    Type
REMARK                         _______ _______ _______ _____ _____    ______ ____
ROOT
ATOM      1  C   LIG    1       -0.129  -0.957   1.692  0.00  0.00    +0.140 A 
ATOM      2  C   LIG    1        0.428  -0.197   2.707  0.00  0.00    -0.080 A 
ATOM      3  C   LIG    1        1.698  -0.485   3.171  0.00  0.00    +0.040 A 
ATOM      4  C   LIG    1        2.421  -1.532   2.627  0.00  0.00    -0.030 A 
ATOM      5  C   LIG    1        1.879  -2.299   1.615  0.00  0.00    +0.060 A 
ATOM      6  C   LIG    1        0.597  -2.021   1.143  0.00  0.00    -0.090 A 
ENDROOT
BRANCH   1   8
ATOM      7  C   LIG    1       -2.057   0.425   1.843  0.00  0.00    +0.250 C 
ATOM      8  O   LIG    1       -1.377  -0.675   1.235  0.00  0.00    -0.310 OA
ENDBRANCH   1   8
BRANCH   6   9
ATOM      9  C   LIG    1        0.011  -2.838   0.060  0.00  0.00    +0.010 C 
ATOM     10  C   LIG    1        0.224  -4.147   0.028  0.00  0.00    -0.020 C 
BRANCH  10  11
ATOM     11  C   LIG    1        0.922  -4.825   1.178  0.00  0.00    +0.050 C 
BRANCH  11  12
ATOM     12  C   LIG    1        0.065  -5.989   1.680  0.00  0.00    -0.020 C 
ATOM     13  C   LIG    1        0.712  -6.599   2.925  0.00  0.00    +0.000 C 
ATOM     14  C   LIG    1       -0.041  -7.054   0.587  0.00  0.00    +0.010 C 
ENDBRANCH  11  12
ENDBRANCH  10  11
ENDBRANCH   6   9
TORSDOF 4
ENDMDL
MODEL      466
REMARK  Name = ZINC000095611669
REMARK                            x       y       z     vdW  Elec       q    Type
REMARK                         _______ _______ _______ _____ _____    ______ ____
ROOT
ATOM      1  C   LIG    1        0.523  -0.836   1.418  0.00  0.00    +0.140 A 
ATOM      2  C   LIG    1        0.668  -0.172   2.624  0.00  0.00    -0.080 A 
ATOM      3  C   LIG    1        0.345  -0.808   3.809  0.00  0.00    +0.050 A 
ATOM      4  C   LIG    1       -0.124  -2.110   3.799  0.00  0.00    -0.030 A 
ATOM      5  C   LIG    1       -0.274  -2.787   2.607  0.00  0.00    +0.060 A 
ATOM      6  C   LIG    1        0.043  -2.153   1.402  0.00  0.00    -0.090 A 
ENDROOT
BRANCH   1   8
ATOM      7  C   LIG    1        1.323   1.130   0.348  0.00  0.00    +0.250 C 
ATOM      8  O   LIG    1        0.840  -0.211   0.254  0.00  0.00    -0.310 OA
ENDBRANCH   1   8
BRANCH   6   9
ATOM      9  C   LIG    1       -0.116  -2.869   0.125  0.00  0.00    +0.020 C 
ATOM     10  C   LIG    1        0.227  -4.167   0.034  0.00  0.00    +0.000 C 
BRANCH  10  11
ATOM     11  C   LIG    1        0.906  -4.826   1.154  0.00  0.00    -0.030 C 
ATOM     12  C   LIG    1        1.146  -6.136   1.109  0.00  0.00    -0.120 C 
ATOM     13  C   LIG    1        1.844  -6.814   2.260  0.00  0.00    +0.070 C 
ATOM     14  C   LIG    1        0.720  -6.940  -0.092  0.00  0.00    +0.080 C 
ENDBRANCH  10  11
ENDBRANCH   6   9
TORSDOF 3
ENDMDL
MODEL      467
REMARK  Name = ZINC000049942698
REMARK                            x       y       z     vdW  Elec       q    Type
REMARK                         _______ _______ _______ _____ _____    ______ ____
ROOT
ATOM      1  C   LIG    1        0.060  -4.275  -0.021  0.00  0.00    +0.120 C 
ENDROOT
BRANCH   1   6
ATOM      2  C   LIG    1       -0.018   1.503   0.010  0.00  0.00    +0.090 C 
ATOM      3  C   LIG    1        0.002  -0.004   0.002  0.00  0.00    -0.090 A 
ATOM      4  C   LIG    1        0.006  -0.689  -1.199  0.00  0.00    +0.000 A 
ATOM      5  C   LIG    1        0.025  -2.071  -1.206  0.00  0.00    +0.010 A 
ATOM      6  C   LIG    1        0.040  -2.768  -0.013  0.00  0.00    -0.080 A 
ATOM      7  C   LIG    1        0.038  -2.084   1.188  0.00  0.00    +0.010 A 
ATOM      8  C   LIG    1        0.023  -0.702   1.195  0.00  0.00    +0.000 A 
ENDBRANCH   1   6
BRANCH   1   9
ATOM      9  C   LIG    1        1.487  -4.759  -0.032  0.00  0.00    -0.080 A 
ATOM     10  C   LIG    1        2.137  -4.969  -1.234  0.00  0.00    +0.010 A 
ATOM     11  C   LIG    1        3.447  -5.412  -1.243  0.00  0.00    +0.000 A 
ATOM     12  C   LIG    1        4.106  -5.645  -0.051  0.00  0.00    -0.090 A 
ATOM     13  C   LIG    1        3.456  -5.434   1.151  0.00  0.00    +0.000 A 
ATOM     14  C   LIG    1        5.533  -6.129  -0.061  0.00  0.00    +0.090 C 
ATOM     15  C   LIG    1        2.148  -4.987   1.161  0.00  0.00    +0.010 A 
ENDBRANCH   1   9
TORSDOF 2
ENDMDL
MODEL      468
REMARK  Name = ZINC000002173792
REMARK                            x       y       z     vdW  Elec       q    Type
REMARK                         _______ _______ _______ _____ _____    ______ ____
ROOT
ATOM      1  C   LIG    1        0.606  -0.607  -1.056  0.00  0.00    +0.130 A 
ATOM      2  C   LIG    1        1.173   0.161  -2.062  0.00  0.00    -0.080 A 
ATOM      3  C   LIG    1        1.786  -0.455  -3.136  0.00  0.00    +0.040 A 
ATOM      4  C   LIG    1        1.835  -1.835  -3.209  0.00  0.00    -0.040 A 
ATOM      5  C   LIG    1        1.270  -2.602  -2.207  0.00  0.00    +0.060 A 
ATOM      6  C   LIG    1        0.661  -1.992  -1.128  0.00  0.00    -0.100 A 
ENDROOT
BRANCH   6   7
ATOM      7  C   LIG    1        0.046  -2.829  -0.036  0.00  0.00    +0.080 C 
ATOM      8  C   LIG    1       -1.036  -3.690  -0.619  0.00  0.00    -0.040 C 
ATOM      9  C   LIG    1       -1.214  -4.936  -0.316  0.00  0.00    -0.060 C 
ATOM     10  C   LIG    1       -0.357  -5.696   0.654  0.00  0.00    +0.050 C 
ATOM     11  C   LIG    1        0.445  -4.724   1.522  0.00  0.00    +0.020 C 
ATOM     12  C   LIG    1        1.127  -3.705   0.602  0.00  0.00    +0.030 C 
ENDBRANCH   6   7
BRANCH   1  14
ATOM     13  C   LIG    1       -0.017   1.425   0.010  0.00  0.00    +0.250 C 
ATOM     14  O   LIG    1        0.002  -0.004   0.002  0.00  0.00    -0.320 OA
ENDBRANCH   1  14
TORSDOF 2
ENDMDL
MODEL      469
REMARK  Name = ZINC000000481011
REMARK                            x       y       z     vdW  Elec       q    Type
REMARK                         _______ _______ _______ _____ _____    ______ ____
ROOT
ATOM      1  C   LIG    1       -0.022   1.749   0.012  0.00  0.00    -0.010 A 
ATOM      2  C   LIG    1        1.200   2.247   0.003  0.00  0.00    +0.060 A 
ATOM      3  C   LIG    1        2.262   1.256  -0.013  0.00  0.00    -0.120 A 
ATOM      4  C   LIG    1        3.666   1.423  -0.025  0.00  0.00    +0.350 A 
ATOM      5  N   LIG    1        4.470   0.399  -0.038  0.00  0.00    -0.460 NA
ATOM      6  C   LIG    1        4.032  -0.879  -0.041  0.00  0.00    +0.120 A 
ATOM      7  C   LIG    1        4.805  -2.108  -0.055  0.00  0.00    +0.060 A 
ATOM      8  C   LIG    1        4.087  -3.217  -0.054  0.00  0.00    +0.000 A 
ATOM      9  S   LIG    1        2.370  -2.862  -0.036  0.00  0.00    +0.120 S 
ATOM     10  C   LIG    1        2.663  -1.129  -0.029  0.00  0.00    -0.160 A 
ATOM     11  C   LIG    1        1.758  -0.045  -0.015  0.00  0.00    -0.080 A 
ATOM     12  S   LIG    1        0.002  -0.004   0.002  0.00  0.00    +0.130 S 
ENDROOT
TORSDOF 0
ENDMDL
MODEL      470
REMARK  Name = ZINC000000480988
REMARK                            x       y       z     vdW  Elec       q    Type
REMARK                         _______ _______ _______ _____ _____    ______ ____
ROOT
ATOM      1  C   LIG    1       -0.022   1.751   0.012  0.00  0.00    +0.010 A 
ATOM      2  C   LIG    1        1.210   2.237   0.003  0.00  0.00    +0.020 A 
ATOM      3  C   LIG    1        2.238   1.284  -0.012  0.00  0.00    +0.000 A 
ATOM      4  C   LIG    1        3.664   1.478  -0.025  0.00  0.00    -0.090 A 
ATOM      5  C   LIG    1        4.417   2.716  -0.025  0.00  0.00    +0.040 A 
ATOM      6  C   LIG    1        5.729   2.566  -0.038  0.00  0.00    -0.010 A 
ATOM      7  S   LIG    1        6.173   0.870  -0.051  0.00  0.00    +0.160 S 
ATOM      8  C   LIG    1        4.488   0.359  -0.038  0.00  0.00    +0.040 A 
ATOM      9  N   LIG    1        3.962  -0.872  -0.039  0.00  0.00    -0.440 NA
ATOM     10  C   LIG    1        2.671  -1.087  -0.028  0.00  0.00    +0.360 A 
ATOM     11  C   LIG    1        1.761  -0.026  -0.015  0.00  0.00    -0.220 A 
ATOM     12  S   LIG    1        0.002  -0.004   0.002  0.00  0.00    +0.150 S 
ENDROOT
TORSDOF 0
ENDMDL
MODEL      471
REMARK  Name = ZINC000001021978
REMARK                            x       y       z     vdW  Elec       q    Type
REMARK                         _______ _______ _______ _____ _____    ______ ____
ROOT
ATOM      1  C   LIG    1       -0.018   1.458   0.010  0.00  0.00    -0.030 A 
ATOM      2  C   LIG    1        1.274   1.871  -0.000  0.00  0.00    +0.120 A 
ATOM      3  N   LIG    1        2.107   0.776  -0.014  0.00  0.00    -0.590 N 
ATOM      4  H   LIG    1        3.077   0.813  -0.023  0.00  0.00    +0.410 HD
ATOM      5  C   LIG    1        1.359  -0.380  -0.013  0.00  0.00    +0.100 A 
ATOM      6  C   LIG    1        1.691  -1.731  -0.023  0.00  0.00    -0.010 A 
ATOM      7  C   LIG    1        0.693  -2.682  -0.018  0.00  0.00    +0.030 A 
ATOM      8  C   LIG    1       -0.643  -2.306  -0.004  0.00  0.00    -0.030 A 
ATOM      9  C   LIG    1       -0.993  -0.986   0.006  0.00  0.00    +0.050 A 
ATOM     10  C   LIG    1        0.002  -0.004   0.002  0.00  0.00    -0.110 A 
ENDROOT
BRANCH   2  11
ATOM     11  C   LIG    1        1.718   3.281   0.004  0.00  0.00    -0.030 A 
ATOM     12  C   LIG    1        0.778   4.312   0.025  0.00  0.00    +0.030 A 
ATOM     13  C   LIG    1        1.199   5.626   0.029  0.00  0.00    +0.020 A 
ATOM     14  C   LIG    1        2.551   5.922   0.011  0.00  0.00    +0.010 A 
ATOM     15  C   LIG    1        3.488   4.905  -0.010  0.00  0.00    +0.020 A 
ATOM     16  C   LIG    1        3.080   3.587  -0.007  0.00  0.00    +0.000 A 
ENDBRANCH   2  11
TORSDOF 1
ENDMDL
MODEL      472
REMARK  Name = ZINC000001086601
REMARK                            x       y       z     vdW  Elec       q    Type
REMARK                         _______ _______ _______ _____ _____    ______ ____
ROOT
ATOM      1  C   LIG    1       -0.554   1.364  -0.399  0.00  0.00    +0.040 C 
ATOM      2  C   LIG    1        0.002  -0.004   0.002  0.00  0.00    +0.080 C 
ENDROOT
BRANCH   2   3
ATOM      3  C   LIG    1        0.883   0.148   1.215  0.00  0.00    -0.080 A 
ATOM      4  C   LIG    1        1.898   1.087   1.218  0.00  0.00    +0.030 A 
ATOM      5  C   LIG    1        2.707   1.228   2.329  0.00  0.00    -0.010 A 
ATOM      6  C   LIG    1        2.500   0.427   3.442  0.00  0.00    +0.100 A 
ATOM      7  C   LIG    1        1.481  -0.514   3.437  0.00  0.00    -0.010 A 
ATOM      8  C   LIG    1        0.671  -0.648   2.326  0.00  0.00    +0.030 A 
BRANCH   6   9
ATOM      9  O   LIG    1        3.294   0.564   4.537  0.00  0.00    -0.500 OA
ATOM     10  H   LIG    1        2.966   1.205   5.183  0.00  0.00    +0.390 HD
ENDBRANCH   6   9
ENDBRANCH   2   3
BRANCH   2  11
ATOM     11  C   LIG    1        0.809  -0.571  -1.137  0.00  0.00    -0.070 A 
ATOM     12  C   LIG    1        0.542  -1.844  -1.607  0.00  0.00    +0.000 A 
ATOM     13  C   LIG    1        1.283  -2.364  -2.652  0.00  0.00    +0.000 A 
ATOM     14  C   LIG    1        2.290  -1.612  -3.227  0.00  0.00    +0.000 A 
ATOM     15  C   LIG    1        2.556  -0.339  -2.758  0.00  0.00    +0.000 A 
ATOM     16  C   LIG    1        1.813   0.183  -1.716  0.00  0.00    +0.000 A 
ENDBRANCH   2  11
TORSDOF 3
ENDMDL
MODEL      473
REMARK  Name = ZINC000001272335
REMARK                            x       y       z     vdW  Elec       q    Type
REMARK                         _______ _______ _______ _____ _____    ______ ____
ROOT
ATOM      1  S   LIG    1        0.002  -0.004   0.002  0.00  0.00    -0.260 S 
ATOM      2  C   LIG    1       -0.021   1.708   0.011  0.00  0.00    -0.050 A 
ATOM      3  S   LIG    1       -1.444   2.726   0.038  0.00  0.00    +0.200 S 
ATOM      4  C   LIG    1       -0.723   4.344   0.036  0.00  0.00    -0.150 A 
ATOM      5  C   LIG    1        0.609   4.359   0.016  0.00  0.00    -0.260 A 
ATOM      6  S   LIG    1        1.193   6.043   0.016  0.00  0.00    +0.220 S 
ATOM      7  C   LIG    1       -0.447   6.655   0.044  0.00  0.00    +0.010 A 
ATOM      8  C   LIG    1       -1.296   5.650   0.051  0.00  0.00    +0.070 A 
ATOM      9  S   LIG    1        1.374   2.764   0.004  0.00  0.00    +0.230 S 
ENDROOT
TORSDOF 0
ENDMDL
MODEL      474
REMARK  Name = ZINC000001389774
REMARK                            x       y       z     vdW  Elec       q    Type
REMARK                         _______ _______ _______ _____ _____    ______ ____
ROOT
ATOM      1  S   LIG    1        0.002  -0.004   0.002  0.00  0.00    -0.320 S 
ATOM      2  C   LIG    1       -0.021   1.708   0.011  0.00  0.00    +0.050 A 
ATOM      3  S   LIG    1       -1.461   2.620   0.037  0.00  0.00    +0.160 S 
ATOM      4  S   LIG    1       -0.569   4.481   0.035  0.00  0.00    -0.020 S 
ATOM      5  C   LIG    1        1.106   3.910   0.008  0.00  0.00    -0.040 A 
ATOM      6  C   LIG    1        2.271   4.695  -0.006  0.00  0.00    +0.050 A 
ATOM      7  C   LIG    1        3.512   4.111  -0.028  0.00  0.00    +0.100 A 
ATOM      8  C   LIG    1        3.612   2.726  -0.037  0.00  0.00    +0.030 A 
ATOM      9  C   LIG    1        2.500   1.954  -0.025  0.00  0.00    +0.120 A 
ATOM     10  C   LIG    1        1.190   2.522   0.004  0.00  0.00    -0.130 A 
ENDROOT
TORSDOF 0
ENDMDL
MODEL      475
REMARK  Name = ZINC000001470731
REMARK                            x       y       z     vdW  Elec       q    Type
REMARK                         _______ _______ _______ _____ _____    ______ ____
ROOT
ATOM      1  C   LIG    1       -0.017   1.384   0.010  0.00  0.00    +0.000 A 
ATOM      2  C   LIG    1        1.165   2.101   0.002  0.00  0.00    +0.010 A 
ATOM      3  C   LIG    1        2.385   1.443  -0.000  0.00  0.00    +0.010 A 
ATOM      4  C   LIG    1        2.391   0.060   0.007  0.00  0.00    +0.160 A 
ATOM      5  N   LIG    1        3.566  -0.697   0.084  0.00  0.00    -0.730 N 
ATOM      6  H   LIG    1        4.158  -0.780  -0.680  0.00  0.00    +0.410 HD
ATOM      7  C   LIG    1        3.860  -1.331   1.296  0.00  0.00    +0.180 A 
ATOM      8  C   LIG    1        5.079  -1.038   1.900  0.00  0.00    -0.020 A 
ATOM      9  C   LIG    1        5.415  -1.603   3.112  0.00  0.00    +0.010 A 
ATOM     10  C   LIG    1        4.522  -2.464   3.725  0.00  0.00    -0.020 A 
ATOM     11  C   LIG    1        3.323  -2.764   3.121  0.00  0.00    +0.010 A 
ATOM     12  C   LIG    1        2.971  -2.217   1.886  0.00  0.00    -0.100 A 
ATOM     13  C   LIG    1        1.657  -2.713   1.326  0.00  0.00    +0.090 C 
ATOM     14  C   LIG    1        1.345  -2.150  -0.049  0.00  0.00    +0.070 C 
ATOM     15  C   LIG    1        1.217  -0.649  -0.010  0.00  0.00    -0.100 A 
ATOM     16  C   LIG    1        0.002  -0.004   0.002  0.00  0.00    +0.030 A 
ENDROOT
TORSDOF 0
ENDMDL
MODEL      476
REMARK  Name = ZINC000001556175
REMARK                            x       y       z     vdW  Elec       q    Type
REMARK                         _______ _______ _______ _____ _____    ______ ____
ROOT
ATOM      1  C   LIG    1        3.711  -0.707  -0.037  0.00  0.00    +0.010 C 
ATOM      2  C   LIG    1        3.671  -2.222  -0.251  0.00  0.00    +0.030 C 
ATOM      3  C   LIG    1        4.007  -1.652   1.130  0.00  0.00    +0.010 C 
ENDROOT
BRANCH   1   7
ATOM      4  C   LIG    1       -0.017   1.378   0.010  0.00  0.00    +0.000 A 
ATOM      5  C   LIG    1        1.171   2.086   0.002  0.00  0.00    +0.000 A 
ATOM      6  C   LIG    1        2.377   1.411  -0.013  0.00  0.00    +0.010 A 
ATOM      7  C   LIG    1        2.396   0.029  -0.020  0.00  0.00    -0.050 A 
ATOM      8  C   LIG    1        1.208  -0.679  -0.011  0.00  0.00    +0.000 A 
ATOM      9  C   LIG    1        0.002  -0.004   0.002  0.00  0.00    +0.000 A 
ENDBRANCH   1   7
BRANCH   3  10
ATOM     10  C   LIG    1        5.437  -1.756   1.596  0.00  0.00    -0.050 A 
ATOM     11  C   LIG    1        6.420  -2.179   0.721  0.00  0.00    +0.000 A 
ATOM     12  C   LIG    1        7.731  -2.274   1.148  0.00  0.00    +0.000 A 
ATOM     13  C   LIG    1        8.059  -1.946   2.451  0.00  0.00    +0.000 A 
ATOM     14  C   LIG    1        7.076  -1.523   3.325  0.00  0.00    +0.000 A 
ATOM     15  C   LIG    1        5.766  -1.423   2.897  0.00  0.00    +0.010 A 
ENDBRANCH   3  10
TORSDOF 2
ENDMDL
MODEL      477
REMARK  Name = ZINC000001569320
REMARK                            x       y       z     vdW  Elec       q    Type
REMARK                         _______ _______ _______ _____ _____    ______ ____
ROOT
ATOM      1  S   LIG    1        1.277  -0.424  -3.463  0.00  0.00    -0.110 S 
ENDROOT
BRANCH   1   2
ATOM      2  C   LIG    1        1.087   0.551  -4.918  0.00  0.00    -0.080 A 
ATOM      3  C   LIG    1        0.034   1.452  -5.021  0.00  0.00    -0.020 A 
ATOM      4  C   LIG    1       -0.112   2.214  -6.163  0.00  0.00    +0.030 A 
ATOM      5  C   LIG    1        0.788   2.082  -7.204  0.00  0.00    +0.000 A 
ATOM      6  C   LIG    1        1.838   1.186  -7.106  0.00  0.00    +0.030 A 
ATOM      7  C   LIG    1        1.993   0.425  -5.964  0.00  0.00    +0.030 A 
ENDBRANCH   1   2
BRANCH   1   8
ATOM      8  C   LIG    1       -0.122   0.102  -2.434  0.00  0.00    +0.110 C 
BRANCH   8  11
ATOM      9  C   LIG    1        0.191   1.490   0.000  0.00  0.00    +0.080 C 
ATOM     10  C   LIG    1        0.104  -0.014  -0.006  0.00  0.00    -0.100 C 
ATOM     11  C   LIG    1       -0.099  -0.654  -1.131  0.00  0.00    -0.050 C 
ATOM     12  C   LIG    1        0.249  -0.783   1.282  0.00  0.00    +0.090 C 
ENDBRANCH   8  11
ENDBRANCH   1   8
TORSDOF 3
ENDMDL
MODEL      478
REMARK  Name = ZINC000001566661
REMARK                            x       y       z     vdW  Elec       q    Type
REMARK                         _______ _______ _______ _____ _____    ______ ____
ROOT
ATOM      1  C   LIG    1       -2.135  -0.131  -1.286  0.00  0.00    -0.020 C 
ATOM      2  C   LIG    1       -1.457  -0.825  -2.468  0.00  0.00    +0.000 C 
ATOM      3  C   LIG    1       -2.159  -0.423  -3.767  0.00  0.00    +0.000 C 
ATOM      4  C   LIG    1       -3.628  -0.843  -3.704  0.00  0.00    +0.000 C 
ATOM      5  C   LIG    1       -4.307  -0.149  -2.521  0.00  0.00    +0.000 C 
ATOM      6  C   LIG    1       -3.605  -0.552  -1.222  0.00  0.00    +0.000 C 
ENDROOT
BRANCH   1   7
ATOM      7  C   LIG    1       -1.433  -0.534   0.013  0.00  0.00    +0.010 C 
BRANCH   7   9
ATOM      8  C   LIG    1       -0.019   1.526   0.010  0.00  0.00    +0.010 C 
ATOM      9  C   LIG    1        0.002  -0.004   0.002  0.00  0.00    -0.030 C 
ATOM     10  C   LIG    1        0.742  -0.511   1.242  0.00  0.00    +0.000 C 
ENDBRANCH   7   9
ENDBRANCH   1   7
TORSDOF 2
ENDMDL
MODEL      479
REMARK  Name = ZINC000001592368
REMARK                            x       y       z     vdW  Elec       q    Type
REMARK                         _______ _______ _______ _____ _____    ______ ____
ROOT
ATOM      1  C   LIG    1        0.872  -2.034   1.171  0.00  0.00    +0.000 C 
ENDROOT
BRANCH   1   2
ATOM      2  C   LIG    1        0.742  -0.511   1.242  0.00  0.00    -0.020 C 
ATOM      3  C   LIG    1       -0.042  -0.124   2.497  0.00  0.00    +0.020 C 
BRANCH   2   5
ATOM      4  C   LIG    1       -0.019   1.526   0.010  0.00  0.00    +0.000 C 
ATOM      5  C   LIG    1        0.002  -0.004   0.002  0.00  0.00    +0.000 C 
ENDBRANCH   2   5
ENDBRANCH   1   2
BRANCH   1   6
ATOM      6  C   LIG    1        1.719  -2.528   2.345  0.00  0.00    +0.010 C 
BRANCH   6   7
ATOM      7  C   LIG    1        1.849  -4.051   2.274  0.00  0.00    +0.000 C 
BRANCH   7   8
ATOM      8  C   LIG    1        2.696  -4.546   3.449  0.00  0.00    -0.030 C 
ATOM      9  C   LIG    1        2.930  -6.051   3.310  0.00  0.00    +0.000 C 
ATOM     10  C   LIG    1        1.962  -4.263   4.761  0.00  0.00    +0.010 C 
ENDBRANCH   7   8
ENDBRANCH   6   7
ENDBRANCH   1   6
TORSDOF 5
ENDMDL
MODEL      480
REMARK  Name = ZINC000001600593
REMARK                            x       y       z     vdW  Elec       q    Type
REMARK                         _______ _______ _______ _____ _____    ______ ____
ROOT
ATOM      1  C   LIG    1        0.718  -0.497  -1.257  0.00  0.00    +0.050 C 
ENDROOT
BRANCH   1   3
ATOM      2  C   LIG    1       -0.019   1.526   0.010  0.00  0.00    +0.050 C 
ATOM      3  C   LIG    1        0.002  -0.004   0.002  0.00  0.00    +0.030 C 
ATOM      4 CL   LIG    1       -1.689  -0.628   0.015  0.00  0.00    -0.190 Cl
ATOM      5  C   LIG    1        0.742  -0.511   1.242  0.00  0.00    +0.060 C 
ENDBRANCH   1   3
BRANCH   1   6
ATOM      6  C   LIG    1        0.053   0.110  -2.493  0.00  0.00    +0.050 C 
BRANCH   6   7
ATOM      7  C   LIG    1        0.769  -0.383  -3.752  0.00  0.00    +0.030 C 
ATOM      8 CL   LIG    1        2.501   0.117  -3.694  0.00  0.00    -0.180 Cl
ATOM      9  C   LIG    1        0.104   0.225  -4.989  0.00  0.00    +0.060 C 
ATOM     10  C   LIG    1        0.681  -1.909  -3.824  0.00  0.00    +0.050 C 
ENDBRANCH   6   7
ENDBRANCH   1   6
TORSDOF 3
ENDMDL
MODEL      481
REMARK  Name = ZINC000001643338
REMARK                            x       y       z     vdW  Elec       q    Type
REMARK                         _______ _______ _______ _____ _____    ______ ____
ROOT
ATOM      1  C   LIG    1        0.193   1.500  -0.137  0.00  0.00    +0.040 C 
ATOM      2  C   LIG    1        0.000  -0.012   0.000  0.00  0.00    +0.210 C 
ENDROOT
BRANCH   2   3
ATOM      3  C   LIG    1       -1.469  -0.321   0.135  0.00  0.00    -0.090 A 
ATOM      4  C   LIG    1       -2.100  -0.160   1.354  0.00  0.00    +0.040 A 
ATOM      5  C   LIG    1       -3.447  -0.444   1.477  0.00  0.00    +0.000 A 
ATOM      6  C   LIG    1       -4.163  -0.888   0.381  0.00  0.00    +0.010 A 
ATOM      7  C   LIG    1       -3.532  -1.049  -0.838  0.00  0.00    +0.010 A 
ATOM      8  C   LIG    1       -2.186  -0.761  -0.963  0.00  0.00    +0.010 A 
ENDBRANCH   2   3
BRANCH   2   9
ATOM      9  O   LIG    1        0.693  -0.477   1.160  0.00  0.00    -0.310 OA
BRANCH   9  10
ATOM     10  C   LIG    1        2.014  -0.764   1.016  0.00  0.00    +0.130 A 
ATOM     11  C   LIG    1        2.721  -1.330   2.067  0.00  0.00    -0.020 A 
ATOM     12  C   LIG    1        4.063  -1.621   1.917  0.00  0.00    +0.050 A 
ATOM     13  C   LIG    1        4.702  -1.348   0.722  0.00  0.00    -0.040 A 
ATOM     14  C   LIG    1        4.000  -0.783  -0.326  0.00  0.00    +0.040 A 
ATOM     15  C   LIG    1        2.656  -0.496  -0.184  0.00  0.00    -0.080 A 
ENDBRANCH   9  10
ENDBRANCH   2   9
TORSDOF 3
ENDMDL
MODEL      482
REMARK  Name = ZINC000001648198
REMARK                            x       y       z     vdW  Elec       q    Type
REMARK                         _______ _______ _______ _____ _____    ______ ____
ROOT
ATOM      1  C   LIG    1       -1.498  -1.848   0.006  0.00  0.00    +0.130 A 
ATOM      2  C   LIG    1       -0.385  -2.677  -0.003  0.00  0.00    -0.080 A 
ATOM      3  C   LIG    1       -0.544  -4.047  -0.009  0.00  0.00    +0.060 A 
ATOM      4  C   LIG    1       -1.824  -4.599  -0.006  0.00  0.00    -0.090 A 
ATOM      5  C   LIG    1       -2.940  -3.764   0.004  0.00  0.00    +0.060 A 
ATOM      6  C   LIG    1       -2.775  -2.395   0.016  0.00  0.00    -0.020 A 
ENDROOT
BRANCH   4   7
ATOM      7  C   LIG    1       -1.998  -6.072  -0.012  0.00  0.00    -0.040 A 
ATOM      8  C   LIG    1       -0.884  -6.908  -0.016  0.00  0.00    +0.000 A 
ATOM      9  C   LIG    1       -1.052  -8.278  -0.021  0.00  0.00    +0.000 A 
ATOM     10  C   LIG    1       -2.324  -8.821  -0.024  0.00  0.00    +0.000 A 
ATOM     11  C   LIG    1       -3.434  -7.996  -0.020  0.00  0.00    +0.000 A 
ATOM     12  C   LIG    1       -3.277  -6.625  -0.008  0.00  0.00    +0.010 A 
ENDBRANCH   4   7
BRANCH   1  13
ATOM     13  O   LIG    1       -1.339  -0.499   0.012  0.00  0.00    -0.320 OA
BRANCH  13  15
ATOM     14  C   LIG    1       -0.019   1.526   0.010  0.00  0.00    +0.070 C 
ATOM     15  C   LIG    1        0.002  -0.004   0.002  0.00  0.00    +0.170 C 
ENDBRANCH  13  15
ENDBRANCH   1  13
TORSDOF 3
ENDMDL
MODEL      483
REMARK  Name = ZINC000001676024
REMARK                            x       y       z     vdW  Elec       q    Type
REMARK                         _______ _______ _______ _____ _____    ______ ____
ROOT
ATOM      1  C   LIG    1        0.002  -0.004   0.002  0.00  0.00    +0.110 A 
ATOM      2  C   LIG    1        0.006  -0.690  -1.206  0.00  0.00    -0.010 A 
ATOM      3  C   LIG    1        0.024  -2.067  -1.219  0.00  0.00    +0.040 A 
ATOM      4  C   LIG    1        0.039  -2.775  -0.013  0.00  0.00    -0.070 A 
ATOM      5  C   LIG    1        0.036  -2.081   1.200  0.00  0.00    +0.030 A 
ATOM      6  C   LIG    1        0.023  -0.703   1.202  0.00  0.00    -0.010 A 
ENDROOT
BRANCH   1   7
ATOM      7  O   LIG    1       -0.016   1.354   0.009  0.00  0.00    -0.500 OA
ATOM      8  H   LIG    1        0.862   1.760   0.003  0.00  0.00    +0.390 HD
ENDBRANCH   1   7
BRANCH   4   9
ATOM      9  C   LIG    1        0.059  -4.248  -0.021  0.00  0.00    +0.010 C 
ATOM     10  C   LIG    1        0.074  -4.926   1.138  0.00  0.00    +0.010 C 
BRANCH  10  11
ATOM     11  C   LIG    1        0.094  -6.400   1.130  0.00  0.00    -0.060 A 
ATOM     12  C   LIG    1        0.103  -7.095  -0.082  0.00  0.00    +0.010 A 
ATOM     13  C   LIG    1        0.123  -8.474  -0.082  0.00  0.00    +0.000 A 
ATOM     14  C   LIG    1        0.132  -9.169   1.114  0.00  0.00    +0.000 A 
ATOM     15  C   LIG    1        0.122  -8.487   2.319  0.00  0.00    +0.000 A 
ATOM     16  C   LIG    1        0.109  -7.108   2.334  0.00  0.00    +0.010 A 
ENDBRANCH  10  11
ENDBRANCH   4   9
TORSDOF 3
ENDMDL
MODEL      484
REMARK  Name = ZINC000001693348
REMARK                            x       y       z     vdW  Elec       q    Type
REMARK                         _______ _______ _______ _____ _____    ______ ____
ROOT
ATOM      1  C   LIG    1       -1.416  -2.058  -0.121  0.00  0.00    +0.000 C 
ENDROOT
BRANCH   1   2
ATOM      2  C   LIG    1       -1.433  -0.534   0.013  0.00  0.00    +0.000 C 
BRANCH   2   4
ATOM      3  C   LIG    1       -0.019   1.526   0.010  0.00  0.00    +0.000 C 
ATOM      4  C   LIG    1        0.002  -0.004   0.002  0.00  0.00    -0.030 C 
ATOM      5  C   LIG    1        0.742  -0.511   1.242  0.00  0.00    +0.010 C 
ENDBRANCH   2   4
ENDBRANCH   1   2
BRANCH   1   6
ATOM      6  C   LIG    1       -2.851  -2.587  -0.110  0.00  0.00    +0.000 C 
BRANCH   6   7
ATOM      7  C   LIG    1       -2.833  -4.111  -0.244  0.00  0.00    +0.000 C 
BRANCH   7   8
ATOM      8  C   LIG    1       -4.269  -4.641  -0.234  0.00  0.00    -0.030 C 
ATOM      9  C   LIG    1       -4.248  -6.171  -0.242  0.00  0.00    +0.000 C 
ATOM     10  C   LIG    1       -5.009  -4.134  -1.473  0.00  0.00    +0.010 C 
ENDBRANCH   7   8
ENDBRANCH   6   7
ENDBRANCH   1   6
TORSDOF 5
ENDMDL
MODEL      485
REMARK  Name = ZINC000000480818
REMARK                            x       y       z     vdW  Elec       q    Type
REMARK                         _______ _______ _______ _____ _____    ______ ____
ROOT
ATOM      1  C   LIG    1        0.002  -0.004   0.002  0.00  0.00    +0.240 A 
ATOM      2  C   LIG    1       -1.185  -0.711   0.004  0.00  0.00    -0.050 A 
ATOM      3  C   LIG    1       -1.174  -2.111  -0.003  0.00  0.00    -0.070 A 
ATOM      4  C   LIG    1        0.037  -2.790  -0.013  0.00  0.00    -0.120 A 
ATOM      5  C   LIG    1       -0.131  -4.255  -0.019  0.00  0.00    -0.040 A 
ATOM      6  C   LIG    1       -1.462  -4.644  -0.015  0.00  0.00    -0.140 A 
ATOM      7  C   LIG    1       -1.786  -6.007  -0.021  0.00  0.00    +0.050 A 
ATOM      8  C   LIG    1       -0.793  -6.958  -0.031  0.00  0.00    +0.020 A 
ATOM      9  C   LIG    1        0.539  -6.573  -0.035  0.00  0.00    +0.020 A 
ATOM     10  C   LIG    1        0.875  -5.241  -0.030  0.00  0.00    +0.040 A 
ATOM     11  C   LIG    1        1.240  -2.056  -0.015  0.00  0.00    +0.100 A 
ATOM     12  S   LIG    1       -2.519  -3.241  -0.002  0.00  0.00    +0.090 S 
ATOM     13  C   LIG    1        1.218  -0.684  -0.013  0.00  0.00    -0.060 A 
ENDROOT
BRANCH   1  14
ATOM     14  N   LIG    1       -0.017   1.393   0.010  0.00  0.00    -0.870 N 
ATOM     15  H   LIG    1       -0.863   1.866   0.016  0.00  0.00    +0.400 HD
ATOM     16  H   LIG    1        0.817   1.889   0.004  0.00  0.00    +0.400 HD
ENDBRANCH   1  14
TORSDOF 1
ENDMDL
MODEL      486
REMARK  Name = ZINC000001705929
REMARK                            x       y       z     vdW  Elec       q    Type
REMARK                         _______ _______ _______ _____ _____    ______ ____
ROOT
ATOM      1  C   LIG    1        3.711  -0.707  -0.037  0.00  0.00    +0.010 C 
ATOM      2  C   LIG    1        3.675  -2.224   0.162  0.00  0.00    +0.030 C 
ATOM      3  C   LIG    1        3.984  -1.640  -1.219  0.00  0.00    +0.010 C 
ENDROOT
BRANCH   1   7
ATOM      4  C   LIG    1       -0.017   1.378   0.010  0.00  0.00    +0.000 A 
ATOM      5  C   LIG    1        1.171   2.086   0.002  0.00  0.00    +0.000 A 
ATOM      6  C   LIG    1        2.377   1.411  -0.013  0.00  0.00    +0.010 A 
ATOM      7  C   LIG    1        2.396   0.029  -0.020  0.00  0.00    -0.050 A 
ATOM      8  C   LIG    1        1.208  -0.679  -0.011  0.00  0.00    +0.000 A 
ATOM      9  C   LIG    1        0.002  -0.004   0.002  0.00  0.00    +0.000 A 
ENDBRANCH   1   7
BRANCH   3  10
ATOM     10  C   LIG    1        5.403  -1.739  -1.715  0.00  0.00    -0.050 A 
ATOM     11  C   LIG    1        6.402  -2.181  -0.867  0.00  0.00    +0.000 A 
ATOM     12  C   LIG    1        7.704  -2.272  -1.322  0.00  0.00    +0.000 A 
ATOM     13  C   LIG    1        8.008  -1.922  -2.625  0.00  0.00    +0.000 A 
ATOM     14  C   LIG    1        7.009  -1.480  -3.472  0.00  0.00    +0.000 A 
ATOM     15  C   LIG    1        5.706  -1.393  -3.018  0.00  0.00    +0.010 A 
ENDBRANCH   3  10
TORSDOF 2
ENDMDL
MODEL      487
REMARK  Name = ZINC000002141668
REMARK                            x       y       z     vdW  Elec       q    Type
REMARK                         _______ _______ _______ _____ _____    ______ ____
ROOT
ATOM      1  C   LIG    1        0.819  -0.733  -1.229  0.00  0.00    -0.030 C 
ATOM      2  C   LIG    1        2.039   0.120  -0.877  0.00  0.00    +0.050 C 
ATOM      3  C   LIG    1       -0.192   0.116  -2.002  0.00  0.00    +0.050 C 
ENDROOT
BRANCH   1   5
ATOM      4  C   LIG    1       -0.394   0.175   1.173  0.00  0.00    +0.080 C 
ATOM      5  S   LIG    1        0.051  -1.349   0.295  0.00  0.00    -0.230 S 
ENDBRANCH   1   5
BRANCH   1   6
ATOM      6  C   LIG    1        1.257  -1.917  -2.093  0.00  0.00    +0.060 C 
BRANCH   6   7
ATOM      7  C   LIG    1        0.021  -2.661  -2.604  0.00  0.00    -0.070 C 
ATOM      8  C   LIG    1       -0.991  -2.808  -1.466  0.00  0.00    +0.060 C 
ATOM      9  C   LIG    1        0.431  -4.047  -3.105  0.00  0.00    +0.020 C 
ATOM     10  C   LIG    1       -0.612  -1.871  -3.751  0.00  0.00    +0.010 C 
ENDBRANCH   6   7
ENDBRANCH   1   6
TORSDOF 3
ENDMDL
MODEL      488
REMARK  Name = ZINC000001711500
REMARK                            x       y       z     vdW  Elec       q    Type
REMARK                         _______ _______ _______ _____ _____    ______ ____
ROOT
ATOM      1  C   LIG    1       -0.017   1.381   0.010  0.00  0.00    +0.000 A 
ATOM      2  C   LIG    1        1.167   2.097   0.002  0.00  0.00    +0.000 A 
ATOM      3  C   LIG    1        2.380   1.436  -0.010  0.00  0.00    +0.010 A 
ATOM      4  C   LIG    1        2.402   0.043  -0.016  0.00  0.00    -0.050 A 
ATOM      5  C   LIG    1        1.206  -0.672  -0.014  0.00  0.00    -0.080 A 
ATOM      6  C   LIG    1        1.259  -2.177  -0.040  0.00  0.00    +0.080 C 
ATOM      7  C   LIG    1        2.449  -2.620  -0.886  0.00  0.00    +0.060 C 
ATOM      8  C   LIG    1        3.721  -1.947  -0.417  0.00  0.00    -0.110 C 
ATOM      9  C   LIG    1        4.980  -2.777  -0.421  0.00  0.00    +0.070 C 
ATOM     10  C   LIG    1        6.219  -1.887  -0.370  0.00  0.00    +0.020 C 
ATOM     11  C   LIG    1        6.049  -0.898   0.790  0.00  0.00    +0.020 C 
ATOM     12  C   LIG    1        4.919   0.064   0.430  0.00  0.00    +0.060 C 
ATOM     13  C   LIG    1        3.695  -0.689  -0.019  0.00  0.00    -0.090 C 
ATOM     14  C   LIG    1        0.002  -0.004   0.002  0.00  0.00    +0.000 A 
ENDROOT
TORSDOF 0
ENDMDL
MODEL      489
REMARK  Name = ZINC000001729072
REMARK                            x       y       z     vdW  Elec       q    Type
REMARK                         _______ _______ _______ _____ _____    ______ ____
ROOT
ATOM      1  C   LIG    1        0.739  -2.004  -1.265  0.00  0.00    -0.030 C 
ATOM      2  C   LIG    1        0.252  -2.670  -2.307  0.00  0.00    -0.020 C 
ENDROOT
BRANCH   2   3
ATOM      3  C   LIG    1        0.271  -4.141  -2.315  0.00  0.00    -0.020 C 
ATOM      4  C   LIG    1       -0.216  -4.806  -3.357  0.00  0.00    -0.030 C 
BRANCH   4   5
ATOM      5  C   LIG    1       -0.195  -6.313  -3.365  0.00  0.00    +0.050 C 
BRANCH   5   6
ATOM      6  C   LIG    1       -1.611  -6.841  -3.605  0.00  0.00    +0.000 C 
ATOM      7  C   LIG    1       -1.590  -8.370  -3.613  0.00  0.00    +0.010 C 
ENDBRANCH   5   6
ENDBRANCH   4   5
ENDBRANCH   2   3
BRANCH   1   8
ATOM      8  C   LIG    1        0.718  -0.497  -1.257  0.00  0.00    +0.050 C 
BRANCH   8  10
ATOM      9  C   LIG    1       -0.019   1.526   0.010  0.00  0.00    +0.010 C 
ATOM     10  C   LIG    1        0.002  -0.004   0.002  0.00  0.00    +0.000 C 
ENDBRANCH   8  10
ENDBRANCH   1   8
TORSDOF 5
ENDMDL
MODEL      490
REMARK  Name = ZINC000001847607
REMARK                            x       y       z     vdW  Elec       q    Type
REMARK                         _______ _______ _______ _____ _____    ______ ____
ROOT
ATOM      1  C   LIG    1       -0.017   1.375   0.010  0.00  0.00    +0.020 A 
ATOM      2  C   LIG    1        1.170   2.086   0.002  0.00  0.00    +0.020 A 
ATOM      3  C   LIG    1        2.370   1.408  -0.003  0.00  0.00    +0.040 A 
ATOM      4  C   LIG    1        2.392   0.014   0.002  0.00  0.00    -0.110 A 
ATOM      5  S   LIG    1        3.947  -0.808   0.047  0.00  0.00    +0.020 S 
ATOM      6  C   LIG    1        3.553  -2.380   0.736  0.00  0.00    -0.110 A 
ATOM      7  C   LIG    1        4.560  -3.106   1.368  0.00  0.00    +0.040 A 
ATOM      8  C   LIG    1        4.284  -4.335   1.929  0.00  0.00    +0.020 A 
ATOM      9  C   LIG    1        3.000  -4.845   1.862  0.00  0.00    +0.020 A 
ATOM     10  C   LIG    1        2.003  -4.129   1.234  0.00  0.00    +0.020 A 
ATOM     11  C   LIG    1        2.270  -2.891   0.658  0.00  0.00    -0.070 A 
ATOM     12  C   LIG    1        1.147  -2.191  -0.035  0.00  0.00    +0.140 C 
ATOM     13  C   LIG    1        1.207  -0.699  -0.009  0.00  0.00    -0.070 A 
ATOM     14  C   LIG    1        0.002  -0.004   0.002  0.00  0.00    +0.020 A 
ENDROOT
TORSDOF 0
ENDMDL
MODEL      491
REMARK  Name = ZINC000002034831
REMARK                            x       y       z     vdW  Elec       q    Type
REMARK                         _______ _______ _______ _____ _____    ______ ____
ROOT
ATOM      1  S   LIG    1       -3.118  -2.686  -0.108  0.00  0.00    -0.270 S 
ENDROOT
BRANCH   1   2
ATOM      2  C   LIG    1       -1.416  -2.058  -0.121  0.00  0.00    +0.080 C 
BRANCH   2   3
ATOM      3  C   LIG    1       -1.433  -0.534   0.013  0.00  0.00    +0.040 C 
BRANCH   3   5
ATOM      4  C   LIG    1       -0.019   1.526   0.010  0.00  0.00    +0.030 C 
ATOM      5  C   LIG    1        0.002  -0.004   0.002  0.00  0.00    -0.020 C 
ATOM      6  C   LIG    1        0.742  -0.511   1.242  0.00  0.00    +0.020 C 
ENDBRANCH   3   5
ENDBRANCH   2   3
ENDBRANCH   1   2
BRANCH   1   7
ATOM      7  C   LIG    1       -2.892  -4.478  -0.274  0.00  0.00    +0.080 C 
BRANCH   7   8
ATOM      8  C   LIG    1       -4.259  -5.165  -0.280  0.00  0.00    +0.040 C 
BRANCH   8   9
ATOM      9  C   LIG    1       -4.069  -6.677  -0.420  0.00  0.00    -0.020 C 
ATOM     10  C   LIG    1       -5.436  -7.353  -0.551  0.00  0.00    +0.030 C 
ATOM     11  C   LIG    1       -3.350  -7.217   0.818  0.00  0.00    +0.020 C 
ENDBRANCH   8   9
ENDBRANCH   7   8
ENDBRANCH   1   7
TORSDOF 6
ENDMDL
MODEL      492
REMARK  Name = ZINC000002077882
REMARK                            x       y       z     vdW  Elec       q    Type
REMARK                         _______ _______ _______ _____ _____    ______ ____
ROOT
ATOM      1  C   LIG    1       -1.413  -2.063   0.004  0.00  0.00    -0.030 C 
ATOM      2  C   LIG    1       -2.849  -2.598   0.006  0.00  0.00    +0.040 C 
ATOM      3  C   LIG    1       -2.825  -4.120  -0.145  0.00  0.00    -0.020 C 
ATOM      4  C   LIG    1       -2.225  -4.497  -1.500  0.00  0.00    +0.030 C 
ATOM      5  C   LIG    1       -0.766  -4.035  -1.558  0.00  0.00    +0.020 C 
ATOM      6  C   LIG    1       -4.253  -4.662  -0.053  0.00  0.00    +0.030 C 
ATOM      7  C   LIG    1       -0.713  -2.555  -1.244  0.00  0.00    +0.360 C 
ATOM      8  O   LIG    1       -0.134  -1.787  -1.973  0.00  0.00    -0.440 OA
ENDROOT
BRANCH   1   9
ATOM      9  C   LIG    1       -1.433  -0.534   0.013  0.00  0.00    -0.040 C 
ATOM     10  C   LIG    1       -2.173  -0.027  -1.227  0.00  0.00    +0.020 C 
ATOM     11  C   LIG    1       -2.149  -0.040   1.272  0.00  0.00    +0.030 C 
BRANCH   9  13
ATOM     12  C   LIG    1       -0.019   1.526   0.010  0.00  0.00    +0.010 C 
ATOM     13  C   LIG    1        0.002  -0.004   0.002  0.00  0.00    +0.000 C 
ATOM     14  C   LIG    1        0.742  -0.511   1.242  0.00  0.00    +0.010 C 
ENDBRANCH   9  13
ENDBRANCH   1   9
TORSDOF 2
ENDMDL
MODEL      493
REMARK  Name = ZINC000004101048
REMARK                            x       y       z     vdW  Elec       q    Type
REMARK                         _______ _______ _______ _____ _____    ______ ____
ROOT
ATOM      1  C   LIG    1       -1.909  -1.936   0.010  0.00  0.00    -0.070 A 
ATOM      2  C   LIG    1       -1.985  -2.632  -1.208  0.00  0.00    -0.040 A 
ATOM      3  C   LIG    1       -1.924  -1.958  -2.440  0.00  0.00    +0.020 A 
ATOM      4  C   LIG    1       -2.000  -2.666  -3.599  0.00  0.00    +0.010 A 
ATOM      5  C   LIG    1       -2.139  -4.053  -3.586  0.00  0.00    +0.000 A 
ATOM      6  C   LIG    1       -2.202  -4.740  -2.412  0.00  0.00    +0.030 A 
ATOM      7  C   LIG    1       -2.126  -4.043  -1.194  0.00  0.00    -0.050 A 
ATOM      8  C   LIG    1       -2.187  -4.717   0.037  0.00  0.00    +0.030 A 
ATOM      9  C   LIG    1       -2.109  -4.009   1.197  0.00  0.00    +0.010 A 
ATOM     10  C   LIG    1       -1.966  -2.623   1.184  0.00  0.00    +0.040 A 
ENDROOT
BRANCH   1  11
ATOM     11  C   LIG    1       -1.760  -0.436   0.017  0.00  0.00    +0.130 C 
BRANCH  11  13
ATOM     12  C   LIG    1       -0.022   1.810   0.012  0.00  0.00    +0.130 C 
ATOM     13  S   LIG    1        0.002  -0.004   0.002  0.00  0.00    -0.250 S 
ENDBRANCH  11  13
ENDBRANCH   1  11
TORSDOF 2
ENDMDL
MODEL      494
REMARK  Name = ZINC000002106140
REMARK                            x       y       z     vdW  Elec       q    Type
REMARK                         _______ _______ _______ _____ _____    ______ ____
ROOT
ATOM      1  C   LIG    1       -0.085  -0.243   4.992  0.00  0.00    -0.020 C 
ATOM      2  C   LIG    1       -1.431  -0.971   4.999  0.00  0.00    +0.010 C 
ENDROOT
BRANCH   1   3
ATOM      3  C   LIG    1        0.698  -0.630   3.737  0.00  0.00    +0.000 C 
BRANCH   3   4
ATOM      4  C   LIG    1       -0.042  -0.124   2.497  0.00  0.00    +0.000 C 
BRANCH   4   5
ATOM      5  C   LIG    1        0.742  -0.511   1.242  0.00  0.00    +0.000 C 
BRANCH   5   7
ATOM      6  C   LIG    1       -0.019   1.526   0.010  0.00  0.00    +0.010 C 
ATOM      7  C   LIG    1        0.002  -0.004   0.002  0.00  0.00    -0.030 C 
ATOM      8  C   LIG    1        0.718  -0.497  -1.257  0.00  0.00    +0.000 C 
ENDBRANCH   5   7
ENDBRANCH   4   5
ENDBRANCH   3   4
ENDBRANCH   1   3
BRANCH   1   9
ATOM      9  C   LIG    1        0.715  -0.639   6.235  0.00  0.00    +0.010 C 
BRANCH   9  10
ATOM     10  C   LIG    1       -0.009  -0.141   7.488  0.00  0.00    +0.010 C 
BRANCH  10  11
ATOM     11  C   LIG    1        0.790  -0.537   8.730  0.00  0.00    +0.020 C 
BRANCH  11  12
ATOM     12  C   LIG    1        0.067  -0.040   9.983  0.00  0.00    +0.150 C 
BRANCH  12  13
ATOM     13  O   LIG    1        0.814  -0.409  11.144  0.00  0.00    -0.580 OA
ATOM     14  H   LIG    1        0.412  -0.126  11.976  0.00  0.00    +0.380 HD
ENDBRANCH  12  13
ENDBRANCH  11  12
ENDBRANCH  10  11
ENDBRANCH   9  10
ENDBRANCH   1   9
TORSDOF 9
ENDMDL
MODEL      495
REMARK  Name = ZINC000002077788
REMARK                            x       y       z     vdW  Elec       q    Type
REMARK                         _______ _______ _______ _____ _____    ______ ____
ROOT
ATOM      1  C   LIG    1       -1.413  -2.063   0.004  0.00  0.00    +0.000 C 
ATOM      2  C   LIG    1       -0.693  -2.555  -1.253  0.00  0.00    +0.040 C 
ATOM      3  C   LIG    1       -0.591  -4.084  -1.216  0.00  0.00    +0.020 C 
ATOM      4  C   LIG    1       -1.979  -4.654  -1.028  0.00  0.00    +0.360 C 
ATOM      5  C   LIG    1       -2.827  -4.121   0.106  0.00  0.00    -0.040 C 
ATOM      6  C   LIG    1       -4.251  -4.667  -0.017  0.00  0.00    +0.040 C 
ATOM      7  O   LIG    1       -2.401  -5.513  -1.766  0.00  0.00    -0.450 OA
ATOM      8  C   LIG    1       -2.848  -2.591   0.019  0.00  0.00    +0.040 C 
ENDROOT
BRANCH   1   9
ATOM      9  C   LIG    1       -1.433  -0.534   0.013  0.00  0.00    -0.050 C 
ATOM     10  C   LIG    1       -2.173  -0.027  -1.227  0.00  0.00    +0.030 C 
ATOM     11  C   LIG    1       -2.149  -0.040   1.272  0.00  0.00    +0.030 C 
BRANCH   9  13
ATOM     12  C   LIG    1       -0.019   1.526   0.010  0.00  0.00    +0.020 C 
ATOM     13  C   LIG    1        0.002  -0.004   0.002  0.00  0.00    -0.020 C 
ATOM     14  C   LIG    1        0.742  -0.511   1.242  0.00  0.00    +0.020 C 
ENDBRANCH   9  13
ENDBRANCH   1   9
TORSDOF 2
ENDMDL
MODEL      496
REMARK  Name = ZINC000002077884
REMARK                            x       y       z     vdW  Elec       q    Type
REMARK                         _______ _______ _______ _____ _____    ______ ____
ROOT
ATOM      1  C   LIG    1       -1.413  -2.063   0.004  0.00  0.00    -0.020 C 
ATOM      2  C   LIG    1       -2.849  -2.598   0.006  0.00  0.00    +0.040 C 
ATOM      3  C   LIG    1       -2.825  -4.120  -0.145  0.00  0.00    -0.020 C 
ATOM      4  C   LIG    1       -2.225  -4.497  -1.500  0.00  0.00    +0.030 C 
ATOM      5  C   LIG    1       -0.766  -4.035  -1.558  0.00  0.00    +0.020 C 
ATOM      6  C   LIG    1       -1.975  -4.728   0.973  0.00  0.00    +0.030 C 
ATOM      7  C   LIG    1       -0.713  -2.555  -1.244  0.00  0.00    +0.360 C 
ATOM      8  O   LIG    1       -0.134  -1.787  -1.973  0.00  0.00    -0.440 OA
ENDROOT
BRANCH   1   9
ATOM      9  C   LIG    1       -1.433  -0.534   0.013  0.00  0.00    -0.040 C 
ATOM     10  C   LIG    1       -2.173  -0.027  -1.227  0.00  0.00    +0.020 C 
ATOM     11  C   LIG    1       -2.149  -0.040   1.272  0.00  0.00    +0.030 C 
BRANCH   9  13
ATOM     12  C   LIG    1       -0.019   1.526   0.010  0.00  0.00    +0.010 C 
ATOM     13  C   LIG    1        0.002  -0.004   0.002  0.00  0.00    +0.000 C 
ATOM     14  C   LIG    1        0.742  -0.511   1.242  0.00  0.00    +0.010 C 
ENDBRANCH   9  13
ENDBRANCH   1   9
TORSDOF 2
ENDMDL
MODEL      497
REMARK  Name = ZINC000002162084
REMARK                            x       y       z     vdW  Elec       q    Type
REMARK                         _______ _______ _______ _____ _____    ______ ____
ROOT
ATOM      1  C   LIG    1       -2.423   0.040  -0.075  0.00  0.00    -0.040 A 
ATOM      2  C   LIG    1       -2.452   1.420  -0.282  0.00  0.00    +0.030 A 
ATOM      3  C   LIG    1       -3.657   2.092  -0.267  0.00  0.00    +0.020 A 
ATOM      4  C   LIG    1       -4.836   1.400  -0.046  0.00  0.00    -0.040 A 
ATOM      5  C   LIG    1       -4.813   0.031   0.161  0.00  0.00    +0.020 A 
ATOM      6 CL   LIG    1       -6.348   2.252  -0.028  0.00  0.00    -0.070 Cl
ATOM      7  C   LIG    1       -3.615  -0.653   0.142  0.00  0.00    +0.030 A 
ENDROOT
BRANCH   1  10
ATOM      8  C   LIG    1       -2.346  -2.748  -0.646  0.00  0.00    +0.080 C 
ATOM      9  C   LIG    1       -1.083  -1.933  -0.537  0.00  0.00    -0.100 C 
ATOM     10  C   LIG    1       -1.136  -0.686  -0.091  0.00  0.00    -0.020 C 
ATOM     11  C   LIG    1        0.239  -2.537  -0.934  0.00  0.00    +0.090 C 
ENDBRANCH   1  10
TORSDOF 1
ENDMDL
MODEL      498
REMARK  Name = ZINC000002077886
REMARK                            x       y       z     vdW  Elec       q    Type
REMARK                         _______ _______ _______ _____ _____    ______ ____
ROOT
ATOM      1  C   LIG    1       -1.578  -2.003   0.137  0.00  0.00    -0.030 C 
ATOM      2  C   LIG    1       -3.025  -2.494   0.024  0.00  0.00    +0.040 C 
ATOM      3  C   LIG    1       -3.073  -3.999   0.295  0.00  0.00    -0.020 C 
ATOM      4  C   LIG    1       -2.633  -4.281   1.733  0.00  0.00    +0.030 C 
ATOM      5  C   LIG    1       -1.171  -3.857   1.910  0.00  0.00    +0.020 C 
ATOM      6  C   LIG    1       -4.503  -4.506   0.094  0.00  0.00    +0.030 C 
ATOM      7  C   LIG    1       -1.031  -2.410   1.488  0.00  0.00    +0.360 C 
ATOM      8  O   LIG    1       -0.502  -1.602   2.212  0.00  0.00    -0.440 OA
ENDROOT
BRANCH   1   9
ATOM      9  C   LIG    1       -1.541  -0.479   0.007  0.00  0.00    -0.040 C 
ATOM     10  C   LIG    1       -2.171  -0.066  -1.325  0.00  0.00    +0.030 C 
ATOM     11  C   LIG    1       -2.325   0.151   1.160  0.00  0.00    +0.020 C 
BRANCH   9  13
ATOM     12  C   LIG    1        0.671  -0.548  -1.154  0.00  0.00    +0.010 C 
ATOM     13  C   LIG    1       -0.089   0.002   0.055  0.00  0.00    -0.010 C 
ATOM     14  C   LIG    1       -0.057   1.531   0.024  0.00  0.00    +0.010 C 
ENDBRANCH   9  13
ENDBRANCH   1   9
TORSDOF 2
ENDMDL
MODEL      499
REMARK  Name = ZINC000002106141
REMARK                            x       y       z     vdW  Elec       q    Type
REMARK                         _______ _______ _______ _____ _____    ______ ____
ROOT
ATOM      1  C   LIG    1       -0.085  -0.243   4.992  0.00  0.00    -0.020 C 
ATOM      2  C   LIG    1       -0.108   1.280   5.130  0.00  0.00    +0.010 C 
ENDROOT
BRANCH   1   3
ATOM      3  C   LIG    1        0.698  -0.630   3.737  0.00  0.00    +0.000 C 
BRANCH   3   4
ATOM      4  C   LIG    1       -0.042  -0.124   2.497  0.00  0.00    +0.010 C 
BRANCH   4   5
ATOM      5  C   LIG    1        0.742  -0.511   1.242  0.00  0.00    +0.000 C 
BRANCH   5   7
ATOM      6  C   LIG    1       -0.019   1.526   0.010  0.00  0.00    +0.010 C 
ATOM      7  C   LIG    1        0.002  -0.004   0.002  0.00  0.00    -0.030 C 
ATOM      8  C   LIG    1        0.718  -0.497  -1.257  0.00  0.00    +0.000 C 
ENDBRANCH   5   7
ENDBRANCH   4   5
ENDBRANCH   3   4
ENDBRANCH   1   3
BRANCH   1   9
ATOM      9  C   LIG    1        0.587  -0.856   6.223  0.00  0.00    +0.010 C 
BRANCH   9  10
ATOM     10  C   LIG    1       -0.264  -0.574   7.463  0.00  0.00    +0.010 C 
BRANCH  10  11
ATOM     11  C   LIG    1        0.409  -1.187   8.693  0.00  0.00    +0.020 C 
BRANCH  11  12
ATOM     12  C   LIG    1       -0.442  -0.905   9.933  0.00  0.00    +0.150 C 
BRANCH  12  13
ATOM     13  O   LIG    1        0.186  -1.477  11.082  0.00  0.00    -0.580 OA
ATOM     14  H   LIG    1       -0.299  -1.337  11.906  0.00  0.00    +0.380 HD
ENDBRANCH  12  13
ENDBRANCH  11  12
ENDBRANCH  10  11
ENDBRANCH   9  10
ENDBRANCH   1   9
TORSDOF 9
ENDMDL
MODEL      500
REMARK  Name = ZINC000002077785
REMARK                            x       y       z     vdW  Elec       q    Type
REMARK                         _______ _______ _______ _____ _____    ______ ____
ROOT
ATOM      1  C   LIG    1       -1.493  -1.984  -0.030  0.00  0.00    -0.010 C 
ATOM      2  C   LIG    1       -1.025  -2.441   1.353  0.00  0.00    +0.040 C 
ATOM      3  C   LIG    1       -1.001  -3.972   1.402  0.00  0.00    +0.020 C 
ATOM      4  C   LIG    1       -2.366  -4.487   1.005  0.00  0.00    +0.370 C 
ATOM      5  C   LIG    1       -2.979  -3.977  -0.280  0.00  0.00    -0.050 C 
ATOM      6  C   LIG    1       -2.187  -4.511  -1.475  0.00  0.00    +0.050 C 
ATOM      7  O   LIG    1       -2.952  -5.286   1.696  0.00  0.00    -0.460 OA
ATOM      8  C   LIG    1       -2.932  -2.446  -0.267  0.00  0.00    +0.040 C 
ENDROOT
BRANCH   1   9
ATOM      9  C   LIG    1       -1.429  -0.457  -0.110  0.00  0.00    -0.050 C 
ATOM     10  C   LIG    1       -1.837  -0.003  -1.512  0.00  0.00    +0.030 C 
ATOM     11  C   LIG    1       -2.384   0.148   0.921  0.00  0.00    +0.030 C 
BRANCH   9  13
ATOM     12  C   LIG    1        0.963  -0.654  -0.804  0.00  0.00    +0.020 C 
ATOM     13  C   LIG    1       -0.001   0.009   0.182  0.00  0.00    -0.020 C 
ATOM     14  C   LIG    1        0.080   1.529   0.030  0.00  0.00    +0.020 C 
ENDBRANCH   9  13
ENDBRANCH   1   9
TORSDOF 2
ENDMDL
MODEL      501
REMARK  Name = ZINC000002077786
REMARK                            x       y       z     vdW  Elec       q    Type
REMARK                         _______ _______ _______ _____ _____    ______ ____
ROOT
ATOM      1  C   LIG    1       -1.413  -2.063   0.004  0.00  0.00    -0.010 C 
ATOM      2  C   LIG    1       -0.693  -2.555  -1.253  0.00  0.00    +0.040 C 
ATOM      3  C   LIG    1       -0.591  -4.084  -1.216  0.00  0.00    +0.020 C 
ATOM      4  C   LIG    1       -1.979  -4.654  -1.028  0.00  0.00    +0.370 C 
ATOM      5  C   LIG    1       -2.827  -4.121   0.106  0.00  0.00    -0.050 C 
ATOM      6  C   LIG    1       -2.227  -4.557   1.444  0.00  0.00    +0.050 C 
ATOM      7  O   LIG    1       -2.401  -5.513  -1.766  0.00  0.00    -0.460 OA
ATOM      8  C   LIG    1       -2.848  -2.591   0.019  0.00  0.00    +0.040 C 
ENDROOT
BRANCH   1   9
ATOM      9  C   LIG    1       -1.433  -0.534   0.013  0.00  0.00    -0.050 C 
ATOM     10  C   LIG    1       -2.173  -0.027  -1.227  0.00  0.00    +0.030 C 
ATOM     11  C   LIG    1       -2.149  -0.040   1.272  0.00  0.00    +0.030 C 
BRANCH   9  13
ATOM     12  C   LIG    1       -0.019   1.526   0.010  0.00  0.00    +0.020 C 
ATOM     13  C   LIG    1        0.002  -0.004   0.002  0.00  0.00    -0.020 C 
ATOM     14  C   LIG    1        0.742  -0.511   1.242  0.00  0.00    +0.020 C 
ENDBRANCH   9  13
ENDBRANCH   1   9
TORSDOF 2
ENDMDL
MODEL      502
REMARK  Name = ZINC000002077885
REMARK                            x       y       z     vdW  Elec       q    Type
REMARK                         _______ _______ _______ _____ _____    ______ ____
ROOT
ATOM      1  C   LIG    1       -1.578  -2.003   0.137  0.00  0.00    -0.020 C 
ATOM      2  C   LIG    1       -3.025  -2.494   0.024  0.00  0.00    +0.040 C 
ATOM      3  C   LIG    1       -3.074  -3.998   0.296  0.00  0.00    -0.020 C 
ATOM      4  C   LIG    1       -2.634  -4.281   1.733  0.00  0.00    +0.030 C 
ATOM      5  C   LIG    1       -1.172  -3.857   1.910  0.00  0.00    +0.020 C 
ATOM      6  C   LIG    1       -2.135  -4.720  -0.673  0.00  0.00    +0.030 C 
ATOM      7  C   LIG    1       -1.032  -2.410   1.488  0.00  0.00    +0.360 C 
ATOM      8  O   LIG    1       -0.503  -1.602   2.212  0.00  0.00    -0.440 OA
ENDROOT
BRANCH   1   9
ATOM      9  C   LIG    1       -1.541  -0.479   0.007  0.00  0.00    -0.040 C 
ATOM     10  C   LIG    1       -2.171  -0.065  -1.325  0.00  0.00    +0.030 C 
ATOM     11  C   LIG    1       -2.325   0.151   1.160  0.00  0.00    +0.020 C 
BRANCH   9  13
ATOM     12  C   LIG    1        0.671  -0.549  -1.154  0.00  0.00    +0.010 C 
ATOM     13  C   LIG    1       -0.089   0.002   0.055  0.00  0.00    -0.010 C 
ATOM     14  C   LIG    1       -0.057   1.531   0.024  0.00  0.00    +0.010 C 
ENDBRANCH   9  13
ENDBRANCH   1   9
TORSDOF 2
ENDMDL
MODEL      503
REMARK  Name = ZINC000002172928
REMARK                            x       y       z     vdW  Elec       q    Type
REMARK                         _______ _______ _______ _____ _____    ______ ____
ROOT
ATOM      1  C   LIG    1        0.980  -1.887  -1.695  0.00  0.00    -0.070 A 
ATOM      2  C   LIG    1        2.081  -2.558  -1.165  0.00  0.00    +0.030 A 
ATOM      3  C   LIG    1        2.205  -3.908  -1.289  0.00  0.00    +0.030 A 
ATOM      4  C   LIG    1        1.211  -4.639  -1.960  0.00  0.00    -0.050 A 
ATOM      5  C   LIG    1        1.304  -6.033  -2.107  0.00  0.00    +0.020 A 
ATOM      6  C   LIG    1        0.322  -6.708  -2.764  0.00  0.00    +0.010 A 
ATOM      7  C   LIG    1       -0.779  -6.038  -3.294  0.00  0.00    +0.000 A 
ATOM      8  C   LIG    1       -0.903  -4.688  -3.171  0.00  0.00    +0.030 A 
ATOM      9  C   LIG    1        0.091  -3.957  -2.500  0.00  0.00    -0.050 A 
ATOM     10  C   LIG    1       -0.005  -2.563  -2.347  0.00  0.00    +0.050 A 
ENDROOT
BRANCH   1  11
ATOM     11  C   LIG    1        0.877  -0.392  -1.539  0.00  0.00    +0.130 C 
BRANCH  11  13
ATOM     12  C   LIG    1       -0.022   1.810   0.012  0.00  0.00    +0.130 C 
ATOM     13  S   LIG    1        0.002  -0.004   0.002  0.00  0.00    -0.250 S 
ENDBRANCH  11  13
ENDBRANCH   1  11
TORSDOF 2
ENDMDL
MODEL      504
REMARK  Name = ZINC000002485887
REMARK                            x       y       z     vdW  Elec       q    Type
REMARK                         _______ _______ _______ _____ _____    ______ ____
ROOT
ATOM      1  C   LIG    1       -0.017   1.378   0.010  0.00  0.00    +0.000 A 
ATOM      2  C   LIG    1        1.171   2.086   0.002  0.00  0.00    +0.000 A 
ATOM      3  C   LIG    1        2.377   1.411  -0.013  0.00  0.00    +0.010 A 
ATOM      4  C   LIG    1        2.396   0.029  -0.020  0.00  0.00    -0.070 A 
ATOM      5  C   LIG    1        1.208  -0.679  -0.011  0.00  0.00    +0.030 A 
ATOM      6  C   LIG    1        0.002  -0.004   0.002  0.00  0.00    +0.000 A 
ENDROOT
BRANCH   4   7
ATOM      7  C   LIG    1        3.711  -0.707  -0.037  0.00  0.00    +0.080 C 
ATOM      8  C   LIG    1        3.817  -1.598   1.204  0.00  0.00    +0.050 C 
ATOM      9  C   LIG    1        5.174  -2.294   1.231  0.00  0.00    +0.000 C 
ATOM     10  C   LIG    1        5.259  -3.357   0.140  0.00  0.00    +0.040 C 
ATOM     11  C   LIG    1        5.336  -2.689  -1.235  0.00  0.00    +0.100 C 
ATOM     12  S   LIG    1        3.806  -1.750  -1.522  0.00  0.00    -0.250 S 
ENDBRANCH   4   7
TORSDOF 1
ENDMDL
MODEL      505
REMARK  Name = ZINC000035022250
REMARK                            x       y       z     vdW  Elec       q    Type
REMARK                         _______ _______ _______ _____ _____    ______ ____
ROOT
ATOM      1  C   LIG    1       -1.609  -1.887   0.007  0.00  0.00    +0.220 A 
ATOM      2  C   LIG    1       -0.539  -2.775  -0.002  0.00  0.00    -0.080 A 
ATOM      3  C   LIG    1       -0.770  -4.134  -0.007  0.00  0.00    +0.060 A 
ATOM      4  C   LIG    1       -2.078  -4.617  -0.002  0.00  0.00    -0.110 A 
ATOM      5  C   LIG    1       -3.149  -3.725   0.007  0.00  0.00    +0.060 A 
ATOM      6  C   LIG    1       -2.913  -2.367   0.017  0.00  0.00    -0.080 A 
ENDROOT
BRANCH   4   7
ATOM      7  C   LIG    1       -2.329  -6.079  -0.007  0.00  0.00    -0.030 A 
ATOM      8  C   LIG    1       -1.260  -6.973  -0.011  0.00  0.00    +0.000 A 
ATOM      9  C   LIG    1       -1.499  -8.332  -0.015  0.00  0.00    +0.010 A 
ATOM     10  C   LIG    1       -2.798  -8.808  -0.016  0.00  0.00    -0.010 A 
ATOM     11  C   LIG    1       -3.864  -7.926  -0.013  0.00  0.00    +0.010 A 
ATOM     12  C   LIG    1       -3.636  -6.564  -0.003  0.00  0.00    +0.000 A 
ENDBRANCH   4   7
BRANCH   1  13
ATOM     13  N   LIG    1       -1.372  -0.511   0.012  0.00  0.00    -0.750 N 
ATOM     14  H   LIG    1       -2.118   0.109   0.023  0.00  0.00    +0.400 HD
BRANCH  13  16
ATOM     15  C   LIG    1       -0.019   1.526   0.010  0.00  0.00    +0.020 C 
ATOM     16  C   LIG    1        0.002  -0.004   0.002  0.00  0.00    +0.240 C 
ENDBRANCH  13  16
ENDBRANCH   1  13
TORSDOF 3
ENDMDL
MODEL      506
REMARK  Name = ZINC000002519527
REMARK                            x       y       z     vdW  Elec       q    Type
REMARK                         _______ _______ _______ _____ _____    ______ ____
ROOT
ATOM      1  C   LIG    1        1.817  -1.760  -0.025  0.00  0.00    +0.090 A 
ATOM      2  C   LIG    1        1.045  -2.901  -0.029  0.00  0.00    +0.000 A 
ATOM      3  C   LIG    1        1.912  -3.997  -0.041  0.00  0.00    +0.000 A 
ATOM      4  C   LIG    1        3.200  -3.509  -0.044  0.00  0.00    +0.090 A 
ATOM      5  N   LIG    1        3.138  -2.136  -0.040  0.00  0.00    -0.540 N 
ATOM      6  H   LIG    1        3.899  -1.534  -0.041  0.00  0.00    +0.420 HD
ENDROOT
BRANCH   1  10
ATOM      7  C   LIG    1       -0.017   1.404   0.010  0.00  0.00    -0.050 A 
ATOM      8  C   LIG    1        1.266   1.818  -0.000  0.00  0.00    +0.180 A 
ATOM      9  O   LIG    1        2.067   0.739  -0.014  0.00  0.00    -0.180 OA
ATOM     10  C   LIG    1        1.313  -0.379  -0.013  0.00  0.00    +0.040 A 
ATOM     11  C   LIG    1        0.002  -0.004   0.002  0.00  0.00    -0.020 A 
ENDBRANCH   1  10
BRANCH   4  12
ATOM     12  C   LIG    1        4.428  -4.317  -0.056  0.00  0.00    +0.040 A 
ATOM     13  C   LIG    1        4.491  -5.679  -0.070  0.00  0.00    -0.020 A 
ATOM     14  C   LIG    1        5.857  -6.021  -0.077  0.00  0.00    -0.060 A 
ATOM     15  C   LIG    1        6.555  -4.868  -0.067  0.00  0.00    +0.180 A 
ATOM     16  O   LIG    1        5.689  -3.840  -0.059  0.00  0.00    -0.180 OA
ENDBRANCH   4  12
TORSDOF 2
ENDMDL
MODEL      507
REMARK  Name = ZINC000000480676
REMARK                            x       y       z     vdW  Elec       q    Type
REMARK                         _______ _______ _______ _____ _____    ______ ____
ROOT
ATOM      1  C   LIG    1       -1.709  -0.424   0.016  0.00  0.00    -0.200 A 
ATOM      2  C   LIG    1       -2.178  -1.661   0.019  0.00  0.00    +0.080 A 
ATOM      3  C   LIG    1       -3.644  -1.760   0.031  0.00  0.00    -0.080 A 
ATOM      4  C   LIG    1       -4.240  -0.534   0.037  0.00  0.00    -0.260 A 
ATOM      5  S   LIG    1       -5.999  -0.714   0.053  0.00  0.00    +0.170 S 
ATOM      6  C   LIG    1       -5.883  -2.461   0.051  0.00  0.00    -0.020 A 
ATOM      7  C   LIG    1       -4.625  -2.850   0.040  0.00  0.00    +0.060 A 
ATOM      8  S   LIG    1       -3.017   0.741   0.035  0.00  0.00    +0.170 S 
ENDROOT
BRANCH   1  10
ATOM      9  C   LIG    1       -0.022   1.810   0.012  0.00  0.00    +0.140 C 
ATOM     10  S   LIG    1        0.002  -0.004   0.002  0.00  0.00    -0.050 S 
ENDBRANCH   1  10
TORSDOF 1
ENDMDL
MODEL      508
REMARK  Name = ZINC000000394211
REMARK                            x       y       z     vdW  Elec       q    Type
REMARK                         _______ _______ _______ _____ _____    ______ ____
ROOT
ATOM      1  C   LIG    1        0.880  -0.397   1.478  0.00  0.00    -0.070 A 
ATOM      2  C   LIG    1        1.343   0.620   2.304  0.00  0.00    +0.020 A 
ATOM      3  C   LIG    1        2.031   0.308   3.462  0.00  0.00    -0.010 A 
ATOM      4  C   LIG    1        2.258  -1.015   3.799  0.00  0.00    +0.040 A 
ATOM      5  C   LIG    1        1.799  -2.030   2.978  0.00  0.00    +0.070 A 
ATOM      6 CL   LIG    1        2.610   1.577   4.495  0.00  0.00    -0.050 Cl
ATOM      7  C   LIG    1        1.106  -1.725   1.823  0.00  0.00    -0.020 A 
ATOM      8 CL   LIG    1        0.529  -2.999   0.794  0.00  0.00    -0.040 Cl
ENDROOT
BRANCH   1  10
ATOM      9  C   LIG    1       -0.022   1.810   0.012  0.00  0.00    +0.130 C 
ATOM     10  S   LIG    1        0.002  -0.004   0.002  0.00  0.00    -0.070 S 
ENDBRANCH   1  10
TORSDOF 1
ENDMDL
MODEL      509
REMARK  Name = ZINC000002511088
REMARK                            x       y       z     vdW  Elec       q    Type
REMARK                         _______ _______ _______ _____ _____    ______ ____
ROOT
ATOM      1  C   LIG    1        0.852  -0.381  -1.495  0.00  0.00    -0.120 A 
ATOM      2  C   LIG    1        0.141  -0.535  -2.680  0.00  0.00    +0.010 A 
ATOM      3  C   LIG    1        0.811  -0.831  -3.852  0.00  0.00    +0.030 A 
ATOM      4  C   LIG    1        2.186  -0.973  -3.847  0.00  0.00    +0.080 A 
ATOM      5  C   LIG    1        2.897  -0.820  -2.671  0.00  0.00    +0.030 A 
ATOM      6 CL   LIG    1       -1.586  -0.356  -2.687  0.00  0.00    -0.030 Cl
ATOM      7  C   LIG    1        2.235  -0.519  -1.496  0.00  0.00    +0.010 A 
ATOM      8 CL   LIG    1        3.128  -0.328  -0.019  0.00  0.00    -0.030 Cl
ENDROOT
BRANCH   1  10
ATOM      9  C   LIG    1       -0.022   1.810   0.012  0.00  0.00    +0.130 C 
ATOM     10  S   LIG    1        0.002  -0.004   0.002  0.00  0.00    -0.120 S 
ENDBRANCH   1  10
TORSDOF 1
ENDMDL
MODEL      510
REMARK  Name = ZINC000002530754
REMARK                            x       y       z     vdW  Elec       q    Type
REMARK                         _______ _______ _______ _____ _____    ______ ____
ROOT
ATOM      1  C   LIG    1        0.002  -0.004   0.002  0.00  0.00    +0.120 A 
ATOM      2  C   LIG    1        0.006  -0.693  -1.199  0.00  0.00    -0.010 A 
ATOM      3  C   LIG    1        0.025  -2.075  -1.206  0.00  0.00    +0.030 A 
ATOM      4  C   LIG    1        0.040  -2.781  -0.015  0.00  0.00    +0.000 A 
ATOM      5  C   LIG    1        0.037  -2.111   1.190  0.00  0.00    +0.030 A 
ATOM      6  C   LIG    1        0.023  -0.715   1.211  0.00  0.00    -0.080 A 
ENDROOT
BRANCH   1   7
ATOM      7  O   LIG    1       -0.016   1.354   0.009  0.00  0.00    -0.490 OA
ATOM      8  H   LIG    1        0.862   1.759   0.003  0.00  0.00    +0.390 HD
ENDBRANCH   1   7
BRANCH   6   9
ATOM      9  C   LIG    1        0.020   0.007   2.495  0.00  0.00    +0.030 C 
ATOM     10  C   LIG    1        0.030  -0.677   3.650  0.00  0.00    +0.010 C 
BRANCH  10  11
ATOM     11  C   LIG    1        0.026   0.045   4.935  0.00  0.00    -0.060 A 
ATOM     12  C   LIG    1        0.007   1.442   4.954  0.00  0.00    +0.020 A 
ATOM     13  C   LIG    1        0.004   2.112   6.160  0.00  0.00    +0.000 A 
ATOM     14  C   LIG    1        0.020   1.403   7.349  0.00  0.00    +0.000 A 
ATOM     15  C   LIG    1        0.039   0.019   7.337  0.00  0.00    +0.000 A 
ATOM     16  C   LIG    1        0.037  -0.663   6.139  0.00  0.00    +0.010 A 
ENDBRANCH  10  11
ENDBRANCH   6   9
TORSDOF 3
ENDMDL
MODEL      511
REMARK  Name = ZINC000000404113
REMARK                            x       y       z     vdW  Elec       q    Type
REMARK                         _______ _______ _______ _____ _____    ______ ____
ROOT
ATOM      1  C   LIG    1        0.880  -0.397   1.478  0.00  0.00    -0.060 A 
ATOM      2  C   LIG    1        1.343   0.620   2.304  0.00  0.00    +0.020 A 
ATOM      3  C   LIG    1        2.031   0.309   3.462  0.00  0.00    +0.000 A 
ATOM      4  C   LIG    1        2.258  -1.014   3.799  0.00  0.00    +0.040 A 
ATOM      5  C   LIG    1        1.798  -2.029   2.979  0.00  0.00    +0.000 A 
ATOM      6 CL   LIG    1        2.085  -3.687   3.406  0.00  0.00    -0.050 Cl
ATOM      7 CL   LIG    1        2.611   1.579   4.494  0.00  0.00    -0.050 Cl
ATOM      8  C   LIG    1        1.105  -1.724   1.822  0.00  0.00    +0.060 A 
ENDROOT
BRANCH   1  10
ATOM      9  C   LIG    1       -0.022   1.810   0.012  0.00  0.00    +0.140 C 
ATOM     10  S   LIG    1        0.002  -0.004   0.002  0.00  0.00    -0.090 S 
ENDBRANCH   1  10
TORSDOF 1
ENDMDL
MODEL      512
REMARK  Name = ZINC000019901719
REMARK                            x       y       z     vdW  Elec       q    Type
REMARK                         _______ _______ _______ _____ _____    ______ ____
ROOT
ATOM      1  C   LIG    1        0.859  -1.860   1.401  0.00  0.00    +0.230 A 
ATOM      2  C   LIG    1        0.341  -2.766   0.487  0.00  0.00    -0.080 A 
ATOM      3  C   LIG    1        0.489  -4.123   0.699  0.00  0.00    +0.050 A 
ATOM      4  C   LIG    1        1.152  -4.587   1.821  0.00  0.00    -0.060 A 
ATOM      5  C   LIG    1        1.673  -3.697   2.739  0.00  0.00    +0.060 A 
ATOM      6  C   LIG    1        1.535  -2.327   2.534  0.00  0.00    -0.130 A 
ENDROOT
BRANCH   6   7
ATOM      7  C   LIG    1        2.092  -1.367   3.518  0.00  0.00    -0.030 A 
ATOM      8  C   LIG    1        2.892  -0.309   3.087  0.00  0.00    -0.010 A 
ATOM      9  C   LIG    1        3.407   0.581   4.007  0.00  0.00    +0.000 A 
ATOM     10  C   LIG    1        3.132   0.426   5.354  0.00  0.00    +0.000 A 
ATOM     11  C   LIG    1        2.339  -0.622   5.786  0.00  0.00    +0.010 A 
ATOM     12  C   LIG    1        1.814  -1.515   4.875  0.00  0.00    +0.010 A 
ENDBRANCH   6   7
BRANCH   1  13
ATOM     13  N   LIG    1        0.711  -0.489   1.189  0.00  0.00    -0.750 N 
ATOM     14  H   LIG    1        1.077   0.142   1.827  0.00  0.00    +0.400 HD
BRANCH  13  16
ATOM     15  C   LIG    1       -0.019   1.526   0.010  0.00  0.00    +0.020 C 
ATOM     16  C   LIG    1        0.002  -0.004   0.002  0.00  0.00    +0.240 C 
ENDBRANCH  13  16
ENDBRANCH   1  13
TORSDOF 3
ENDMDL
MODEL      513
REMARK  Name = ZINC000002570859
REMARK                            x       y       z     vdW  Elec       q    Type
REMARK                         _______ _______ _______ _____ _____    ______ ____
ROOT
ATOM      1  C   LIG    1       -1.709  -0.424   0.016  0.00  0.00    -0.080 A 
ATOM      2  C   LIG    1       -2.671   0.578   0.025  0.00  0.00    +0.030 A 
ATOM      3  C   LIG    1       -4.012   0.246   0.035  0.00  0.00    +0.060 A 
ATOM      4  C   LIG    1       -4.398  -1.083   0.038  0.00  0.00    -0.030 A 
ATOM      5  C   LIG    1       -3.442  -2.084   0.029  0.00  0.00    +0.070 A 
ATOM      6 CL   LIG    1       -6.084  -1.496   0.052  0.00  0.00    -0.050 Cl
ATOM      7  C   LIG    1       -2.099  -1.759   0.013  0.00  0.00    -0.010 A 
ATOM      8 CL   LIG    1       -0.901  -3.014   0.001  0.00  0.00    -0.040 Cl
ENDROOT
BRANCH   1  10
ATOM      9  C   LIG    1       -0.022   1.810   0.012  0.00  0.00    +0.130 C 
ATOM     10  S   LIG    1        0.002  -0.004   0.002  0.00  0.00    -0.070 S 
ENDBRANCH   1  10
TORSDOF 1
ENDMDL
MODEL      514
REMARK  Name = ZINC000000397775
REMARK                            x       y       z     vdW  Elec       q    Type
REMARK                         _______ _______ _______ _____ _____    ______ ____
ROOT
ATOM      1  C   LIG    1       -1.709  -0.424   0.016  0.00  0.00    -0.070 A 
ATOM      2  C   LIG    1       -2.671   0.578   0.025  0.00  0.00    +0.020 A 
ATOM      3  C   LIG    1       -4.012   0.247   0.036  0.00  0.00    +0.070 A 
ATOM      4  C   LIG    1       -4.398  -1.082   0.039  0.00  0.00    -0.040 A 
ATOM      5  C   LIG    1       -3.442  -2.083   0.030  0.00  0.00    -0.010 A 
ATOM      6 CL   LIG    1       -3.930  -3.749   0.033  0.00  0.00    -0.040 Cl
ATOM      7 CL   LIG    1       -6.085  -1.494   0.053  0.00  0.00    -0.040 Cl
ATOM      8  C   LIG    1       -2.099  -1.758   0.013  0.00  0.00    +0.070 A 
ENDROOT
BRANCH   1  10
ATOM      9  C   LIG    1       -0.022   1.810   0.012  0.00  0.00    +0.140 C 
ATOM     10  S   LIG    1        0.002  -0.004   0.002  0.00  0.00    -0.090 S 
ENDBRANCH   1  10
TORSDOF 1
ENDMDL
MODEL      515
REMARK  Name = ZINC000002556065
REMARK                            x       y       z     vdW  Elec       q    Type
REMARK                         _______ _______ _______ _____ _____    ______ ____
ROOT
ATOM      1  O   LIG    1        3.543   1.546  -0.023  0.00  0.00    -0.250 OA
ENDROOT
BRANCH   1   2
ATOM      2  C   LIG    1        4.502   0.584  -0.004  0.00  0.00    +0.080 A 
ATOM      3  C   LIG    1        4.144  -0.756  -0.051  0.00  0.00    +0.010 A 
ATOM      4  C   LIG    1        5.122  -1.732  -0.031  0.00  0.00    +0.020 A 
ATOM      5  C   LIG    1        6.456  -1.375   0.036  0.00  0.00    +0.010 A 
ATOM      6  C   LIG    1        6.815  -0.040   0.084  0.00  0.00    +0.020 A 
ATOM      7  C   LIG    1        5.842   0.940   0.058  0.00  0.00    +0.000 A 
ENDBRANCH   1   2
BRANCH   1  10
ATOM      8  C   LIG    1        3.439   2.554   3.401  0.00  0.00    -0.020 A 
ATOM      9  C   LIG    1        3.876   1.869   2.343  0.00  0.00    -0.040 A 
ATOM     10  C   LIG    1        3.223   2.154   1.153  0.00  0.00    +0.100 A 
ATOM     11  C   LIG    1        2.256   3.072   1.250  0.00  0.00    -0.090 A 
ATOM     12  S   LIG    1        2.134   3.627   2.914  0.00  0.00    +0.140 S 
ENDBRANCH   1  10
TORSDOF 2
ENDMDL
MODEL      516
REMARK  Name = ZINC000001699350
REMARK                            x       y       z     vdW  Elec       q    Type
REMARK                         _______ _______ _______ _____ _____    ______ ____
ROOT
ATOM      1  C   LIG    1       -1.709  -0.424   0.016  0.00  0.00    -0.090 A 
ATOM      2  C   LIG    1       -2.672   0.578   0.025  0.00  0.00    -0.010 A 
ATOM      3  C   LIG    1       -4.012   0.246   0.036  0.00  0.00    +0.020 A 
ATOM      4  C   LIG    1       -4.397  -1.083   0.038  0.00  0.00    -0.070 A 
ATOM      5  C   LIG    1       -3.441  -2.083   0.029  0.00  0.00    +0.030 A 
ATOM      6  C   LIG    1       -2.099  -1.758   0.013  0.00  0.00    +0.030 A 
ENDROOT
BRANCH   4   7
ATOM      7  C   LIG    1       -5.860  -1.442   0.050  0.00  0.00    -0.030 C 
ATOM      8  C   LIG    1       -6.517  -0.864   1.306  0.00  0.00    +0.040 C 
ATOM      9  C   LIG    1       -6.012  -2.964   0.051  0.00  0.00    +0.030 C 
ATOM     10  C   LIG    1       -6.538  -0.862  -1.193  0.00  0.00    +0.040 C 
ENDBRANCH   4   7
BRANCH   1  12
ATOM     11  C   LIG    1       -0.022   1.810   0.012  0.00  0.00    +0.130 C 
ATOM     12  S   LIG    1        0.002  -0.004   0.002  0.00  0.00    -0.120 S 
ENDBRANCH   1  12
TORSDOF 2
ENDMDL
MODEL      517
REMARK  Name = ZINC000002566001
REMARK                            x       y       z     vdW  Elec       q    Type
REMARK                         _______ _______ _______ _____ _____    ______ ____
ROOT
ATOM      1  C   LIG    1        0.002  -0.004   0.002  0.00  0.00    +0.110 A 
ATOM      2  C   LIG    1        0.006  -0.691  -1.204  0.00  0.00    -0.020 A 
ATOM      3  C   LIG    1        0.025  -2.074  -1.219  0.00  0.00    +0.030 A 
ATOM      4  C   LIG    1        0.040  -2.781  -0.035  0.00  0.00    +0.010 A 
ATOM      5  C   LIG    1        0.036  -2.098   1.185  0.00  0.00    -0.040 A 
ATOM      6  C   LIG    1        0.023  -0.702   1.197  0.00  0.00    +0.000 A 
ENDROOT
BRANCH   1   7
ATOM      7  O   LIG    1       -0.016   1.355   0.009  0.00  0.00    -0.500 OA
ATOM      8  H   LIG    1        0.862   1.760   0.003  0.00  0.00    +0.390 HD
ENDBRANCH   1   7
BRANCH   5   9
ATOM      9  C   LIG    1        0.053  -2.850   2.453  0.00  0.00    +0.010 C 
ATOM     10  C   LIG    1        0.071  -4.192   2.438  0.00  0.00    +0.020 C 
BRANCH  10  11
ATOM     11  C   LIG    1        0.087  -4.943   3.706  0.00  0.00    -0.060 A 
ATOM     12  C   LIG    1        0.078  -4.261   4.926  0.00  0.00    +0.010 A 
ATOM     13  C   LIG    1        0.093  -4.971   6.109  0.00  0.00    +0.000 A 
ATOM     14  C   LIG    1        0.117  -6.354   6.089  0.00  0.00    +0.000 A 
ATOM     15  C   LIG    1        0.127  -7.036   4.885  0.00  0.00    +0.000 A 
ATOM     16  C   LIG    1        0.106  -6.340   3.694  0.00  0.00    +0.010 A 
ENDBRANCH  10  11
ENDBRANCH   5   9
TORSDOF 3
ENDMDL
MODEL      518
REMARK  Name = ZINC000002023114
REMARK                            x       y       z     vdW  Elec       q    Type
REMARK                         _______ _______ _______ _____ _____    ______ ____
ROOT
ATOM      1  C   LIG    1       -1.709  -0.424   0.016  0.00  0.00    -0.080 A 
ATOM      2  C   LIG    1       -2.672   0.593   0.025  0.00  0.00    +0.000 A 
ATOM      3  C   LIG    1       -3.999   0.298   0.036  0.00  0.00    +0.050 A 
ATOM      4  C   LIG    1       -4.419  -1.044   0.038  0.00  0.00    -0.060 A 
ATOM      5  C   LIG    1       -5.784  -1.378   0.049  0.00  0.00    +0.030 A 
ATOM      6  C   LIG    1       -6.158  -2.687   0.050  0.00  0.00    +0.000 A 
ATOM      7  C   LIG    1       -5.206  -3.705   0.041  0.00  0.00    +0.020 A 
ATOM      8  C   LIG    1       -3.876  -3.420   0.031  0.00  0.00    +0.020 A 
ATOM      9  C   LIG    1       -3.451  -2.080   0.029  0.00  0.00    -0.030 A 
ATOM     10  C   LIG    1       -2.087  -1.750   0.013  0.00  0.00    +0.040 A 
ENDROOT
BRANCH   1  12
ATOM     11  C   LIG    1       -0.022   1.810   0.012  0.00  0.00    +0.140 C 
ATOM     12  S   LIG    1        0.002  -0.004   0.002  0.00  0.00    -0.120 S 
ENDBRANCH   1  12
TORSDOF 1
ENDMDL
MODEL      519
REMARK  Name = ZINC000002511087
REMARK                            x       y       z     vdW  Elec       q    Type
REMARK                         _______ _______ _______ _____ _____    ______ ____
ROOT
ATOM      1  C   LIG    1       -1.709  -0.424   0.016  0.00  0.00    -0.070 A 
ATOM      2  C   LIG    1       -2.672   0.578   0.025  0.00  0.00    +0.020 A 
ATOM      3  C   LIG    1       -4.013   0.246   0.035  0.00  0.00    +0.060 A 
ATOM      4  C   LIG    1       -4.399  -1.081   0.037  0.00  0.00    +0.040 A 
ATOM      5  C   LIG    1       -3.443  -2.083   0.029  0.00  0.00    -0.010 A 
ATOM      6 CL   LIG    1       -3.933  -3.749   0.031  0.00  0.00    -0.040 Cl
ATOM      7  C   LIG    1       -2.099  -1.758   0.013  0.00  0.00    -0.020 A 
ATOM      8 CL   LIG    1       -0.901  -3.015   0.002  0.00  0.00    -0.030 Cl
ENDROOT
BRANCH   1  10
ATOM      9  C   LIG    1       -0.022   1.810   0.012  0.00  0.00    +0.130 C 
ATOM     10  S   LIG    1        0.002  -0.004   0.002  0.00  0.00    -0.070 S 
ENDBRANCH   1  10
TORSDOF 1
ENDMDL
MODEL      520
REMARK  Name = ZINC000003075599
REMARK                            x       y       z     vdW  Elec       q    Type
REMARK                         _______ _______ _______ _____ _____    ______ ____
ROOT
ATOM      1  C   LIG    1       -0.019   1.526   0.010  0.00  0.00    +0.030 C 
ATOM      2  C   LIG    1        0.002  -0.004   0.002  0.00  0.00    +0.280 C 
ENDROOT
BRANCH   2   3
ATOM      3  C   LIG    1       -1.412  -0.526   0.013  0.00  0.00    -0.090 A 
ATOM      4  C   LIG    1       -2.141  -0.569  -1.161  0.00  0.00    +0.010 A 
ATOM      5  C   LIG    1       -3.438  -1.047  -1.151  0.00  0.00    +0.000 A 
ATOM      6  C   LIG    1       -4.005  -1.483   0.032  0.00  0.00    +0.000 A 
ATOM      7  C   LIG    1       -3.275  -1.441   1.205  0.00  0.00    +0.010 A 
ATOM      8  C   LIG    1       -1.977  -0.966   1.195  0.00  0.00    +0.010 A 
ENDBRANCH   2   3
BRANCH   2   9
ATOM      9  N   LIG    1        0.688  -0.476  -1.203  0.00  0.00    -0.740 N 
ATOM     10  H   LIG    1        0.175  -0.710  -1.993  0.00  0.00    +0.400 HD
BRANCH   9  11
ATOM     11  C   LIG    1        2.080  -0.591  -1.215  0.00  0.00    +0.220 A 
ATOM     12  C   LIG    1        2.815  -0.263  -0.083  0.00  0.00    -0.080 A 
ATOM     13  C   LIG    1        4.191  -0.378  -0.099  0.00  0.00    +0.050 A 
ATOM     14  C   LIG    1        4.837  -0.818  -1.239  0.00  0.00    -0.060 A 
ATOM     15  C   LIG    1        4.108  -1.146  -2.368  0.00  0.00    +0.050 A 
ATOM     16  C   LIG    1        2.732  -1.039  -2.357  0.00  0.00    -0.080 A 
ENDBRANCH   9  11
ENDBRANCH   2   9
TORSDOF 3
ENDMDL
MODEL      521
REMARK  Name = ZINC000063361146
REMARK                            x       y       z     vdW  Elec       q    Type
REMARK                         _______ _______ _______ _____ _____    ______ ____
ROOT
ATOM      1  C   LIG    1       -0.017   1.381   0.010  0.00  0.00    +0.010 A 
ATOM      2  C   LIG    1        1.171   2.091   0.002  0.00  0.00    +0.000 A 
ATOM      3  C   LIG    1        2.380   1.427  -0.014  0.00  0.00    +0.020 A 
ATOM      4  C   LIG    1        2.408   0.030  -0.022  0.00  0.00    -0.060 A 
ATOM      5  C   LIG    1        1.203  -0.674  -0.013  0.00  0.00    -0.100 A 
ATOM      6  C   LIG    1        1.567  -2.139  -0.024  0.00  0.00    +0.140 C 
ATOM      7  C   LIG    1        3.073  -2.178  -0.041  0.00  0.00    -0.120 C 
ATOM      8  C   LIG    1        3.941  -3.412  -0.059  0.00  0.00    +0.090 C 
ATOM      9  C   LIG    1        5.357  -3.007  -0.484  0.00  0.00    +0.020 C 
ATOM     10  C   LIG    1        5.808  -1.806   0.352  0.00  0.00    +0.010 C 
ATOM     11  C   LIG    1        4.998  -0.571  -0.055  0.00  0.00    +0.080 C 
ATOM     12  C   LIG    1        3.528  -0.930  -0.040  0.00  0.00    -0.100 C 
ATOM     13  C   LIG    1        0.002  -0.004   0.002  0.00  0.00    +0.020 A 
ENDROOT
TORSDOF 0
ENDMDL
MODEL      522
REMARK  Name = ZINC000003075551
REMARK                            x       y       z     vdW  Elec       q    Type
REMARK                         _______ _______ _______ _____ _____    ______ ____
ROOT
ATOM      1  C   LIG    1       -1.413  -2.041   0.005  0.00  0.00    -0.070 A 
ATOM      2  C   LIG    1       -0.205  -2.714  -0.005  0.00  0.00    +0.020 A 
ATOM      3  C   LIG    1       -0.184  -4.096  -0.012  0.00  0.00    -0.100 A 
ATOM      4  C   LIG    1       -1.375  -4.807  -0.010  0.00  0.00    +0.090 A 
ATOM      5  C   LIG    1       -2.585  -4.128  -0.000  0.00  0.00    -0.100 A 
ATOM      6  C   LIG    1       -3.881  -4.897   0.003  0.00  0.00    +0.100 C 
ATOM      7  C   LIG    1        1.132  -4.829  -0.023  0.00  0.00    +0.100 C 
ATOM      8  C   LIG    1       -2.601  -2.747   0.012  0.00  0.00    +0.010 A 
ENDROOT
BRANCH   1   9
ATOM      9  C   LIG    1       -1.433  -0.534   0.013  0.00  0.00    -0.020 C 
ATOM     10  C   LIG    1       -2.173  -0.027  -1.227  0.00  0.00    +0.040 C 
ATOM     11  C   LIG    1       -2.149  -0.040   1.272  0.00  0.00    +0.040 C 
BRANCH   9  13
ATOM     12  C   LIG    1       -0.019   1.526   0.010  0.00  0.00    +0.010 C 
ATOM     13  C   LIG    1        0.002  -0.004   0.002  0.00  0.00    +0.010 C 
ENDBRANCH   9  13
ENDBRANCH   1   9
BRANCH   4  14
ATOM     14  O   LIG    1       -1.357  -6.165  -0.017  0.00  0.00    -0.490 OA
ATOM     15  H   LIG    1       -1.347  -6.563   0.864  0.00  0.00    +0.390 HD
ENDBRANCH   4  14
TORSDOF 3
ENDMDL
MODEL      523
REMARK  Name = ZINC000003083155
REMARK                            x       y       z     vdW  Elec       q    Type
REMARK                         _______ _______ _______ _____ _____    ______ ____
ROOT
ATOM      1  C   LIG    1       -0.018   1.461   0.010  0.00  0.00    -0.040 A 
ATOM      2  C   LIG    1        1.260   1.872   0.000  0.00  0.00    +0.220 A 
ATOM      3  N   LIG    1        2.099   0.789  -0.014  0.00  0.00    -0.440 N 
ATOM      4  C   LIG    1        1.359  -0.375  -0.013  0.00  0.00    +0.100 A 
ATOM      5  C   LIG    1        1.697  -1.724  -0.023  0.00  0.00    -0.010 A 
ATOM      6  C   LIG    1        0.703  -2.678  -0.018  0.00  0.00    +0.030 A 
ATOM      7  C   LIG    1       -0.634  -2.307  -0.004  0.00  0.00    -0.020 A 
ATOM      8  C   LIG    1       -0.989  -0.987   0.006  0.00  0.00    +0.050 A 
ATOM      9  C   LIG    1        0.002  -0.004   0.002  0.00  0.00    -0.110 A 
ENDROOT
BRANCH   3  10
ATOM     10  C   LIG    1        3.498   0.854  -0.026  0.00  0.00    +0.130 A 
ATOM     11  C   LIG    1        4.237   0.105   0.880  0.00  0.00    +0.010 A 
ATOM     12  C   LIG    1        5.617   0.172   0.865  0.00  0.00    +0.030 A 
ATOM     13  C   LIG    1        6.262   0.983  -0.051  0.00  0.00    +0.010 A 
ATOM     14  C   LIG    1        5.528   1.729  -0.955  0.00  0.00    +0.030 A 
ATOM     15  C   LIG    1        4.149   1.662  -0.949  0.00  0.00    +0.010 A 
ENDBRANCH   3  10
TORSDOF 1
ENDMDL
MODEL      524
REMARK  Name = ZINC000001681578
REMARK                            x       y       z     vdW  Elec       q    Type
REMARK                         _______ _______ _______ _____ _____    ______ ____
ROOT
ATOM      1  O   LIG    1        0.002  -0.004   0.002  0.00  0.00    -0.450 OA
ATOM      2  C   LIG    1       -0.014   1.203   0.009  0.00  0.00    +0.370 C 
ENDROOT
BRANCH   2   3
ATOM      3  C   LIG    1       -1.329   1.939   0.019  0.00  0.00    -0.050 C 
ATOM      4  C   LIG    1       -1.781   2.196  -1.420  0.00  0.00    +0.030 C 
ATOM      5  C   LIG    1       -3.117   2.943  -1.410  0.00  0.00    +0.010 C 
ATOM      6  C   LIG    1       -4.168   2.098  -0.688  0.00  0.00    +0.000 C 
ATOM      7  C   LIG    1       -3.716   1.841   0.751  0.00  0.00    +0.010 C 
ATOM      8  C   LIG    1       -2.381   1.094   0.741  0.00  0.00    +0.020 C 
ENDBRANCH   2   3
BRANCH   2   9
ATOM      9  C   LIG    1        1.280   1.975   0.000  0.00  0.00    -0.050 C 
ATOM     10  C   LIG    1        1.732   2.228   1.440  0.00  0.00    +0.030 C 
ATOM     11  C   LIG    1        3.047   3.011   1.432  0.00  0.00    +0.010 C 
ATOM     12  C   LIG    1        4.117   2.202   0.696  0.00  0.00    +0.000 C 
ATOM     13  C   LIG    1        3.665   1.949  -0.744  0.00  0.00    +0.010 C 
ATOM     14  C   LIG    1        2.351   1.166  -0.735  0.00  0.00    +0.020 C 
ENDBRANCH   2   9
TORSDOF 2
ENDMDL
MODEL      525
REMARK  Name = ZINC000003860295
REMARK                            x       y       z     vdW  Elec       q    Type
REMARK                         _______ _______ _______ _____ _____    ______ ____
ROOT
ATOM      1  C   LIG    1        0.002  -0.004   0.002  0.00  0.00    +0.150 C 
ATOM      2  C   LIG    1        0.848  -0.509   1.173  0.00  0.00    -0.020 C 
ATOM      3  C   LIG    1        1.526   0.677   1.861  0.00  0.00    -0.000 C 
ATOM      4  C   LIG    1        1.213   0.646   3.358  0.00  0.00    -0.010 C 
ATOM      5  C   LIG    1        0.636   1.996   3.787  0.00  0.00    +0.000 C 
ATOM      6  C   LIG    1       -0.695   1.775   4.509  0.00  0.00    -0.010 C 
ATOM      7  C   LIG    1       -1.779   2.634   3.854  0.00  0.00    +0.000 C 
ATOM      8  C   LIG    1       -2.969   1.750   3.475  0.00  0.00    -0.010 C 
ATOM      9  C   LIG    1       -3.303   1.952   1.995  0.00  0.00    +0.000 C 
ATOM     10  C   LIG    1       -3.335   0.595   1.290  0.00  0.00    -0.010 C 
ATOM     11  C   LIG    1       -2.413   0.633   0.069  0.00  0.00    +0.020 C 
ATOM     12  C   LIG    1       -1.427  -0.534   0.139  0.00  0.00    +0.010 C 
ENDROOT
BRANCH   1  13
ATOM     13  O   LIG    1       -0.017   1.425   0.010  0.00  0.00    -0.550 OA
ATOM     14  H   LIG    1        0.835   1.831  -0.201  0.00  0.00    +0.370 HD
ENDBRANCH   1  13
TORSDOF 1
ENDMDL
MODEL      526
REMARK  Name = ZINC000003861649
REMARK                            x       y       z     vdW  Elec       q    Type
REMARK                         _______ _______ _______ _____ _____    ______ ____
ROOT
ATOM      1  C   LIG    1        1.132   1.915   0.300  0.00  0.00    -0.150 A 
ATOM      2  C   LIG    1        1.173   3.138  -0.408  0.00  0.00    +0.140 A 
ATOM      3  C   LIG    1        2.345   3.821  -0.510  0.00  0.00    -0.060 A 
ATOM      4  C   LIG    1        3.507   3.317   0.084  0.00  0.00    +0.260 A 
ATOM      5  C   LIG    1        3.474   2.108   0.787  0.00  0.00    -0.060 A 
ATOM      6  C   LIG    1        2.309   1.415   0.902  0.00  0.00    +0.170 A 
ENDROOT
BRANCH   1   8
ATOM      7  O   LIG    1       -1.024   1.674  -0.116  0.00  0.00    +0.120 OA
ATOM      8  N   LIG    1       -0.011   1.241   0.404  0.00  0.00    -0.340 NA
ENDBRANCH   1   8
BRANCH   4   9
ATOM      9  N   LIG    1        4.692   4.017  -0.023  0.00  0.00    -0.670 N 
ATOM     10  H   LIG    1        5.537   3.541  -0.034  0.00  0.00    +0.420 HD
BRANCH   9  11
ATOM     11  C   LIG    1        4.674   5.410  -0.116  0.00  0.00    +0.160 A 
ATOM     12  C   LIG    1        3.662   6.136   0.500  0.00  0.00    -0.020 A 
ATOM     13  C   LIG    1        3.647   7.514   0.407  0.00  0.00    +0.040 A 
ATOM     14  C   LIG    1        4.639   8.171  -0.299  0.00  0.00    -0.010 A 
ATOM     15  C   LIG    1        5.647   7.452  -0.914  0.00  0.00    +0.040 A 
ATOM     16  C   LIG    1        5.672   6.075  -0.819  0.00  0.00    -0.020 A 
ENDBRANCH   9  11
ENDBRANCH   4   9
TORSDOF 3
ENDMDL
MODEL      527
REMARK  Name = ZINC000003851734
REMARK                            x       y       z     vdW  Elec       q    Type
REMARK                         _______ _______ _______ _____ _____    ______ ____
ROOT
ATOM      1  O   LIG    1       -1.391  -0.075  -3.065  0.00  0.00    -0.370 OA
ENDROOT
BRANCH   1   2
ATOM      2  C   LIG    1       -0.122   0.102  -2.434  0.00  0.00    +0.180 C 
ATOM      3  C   LIG    1        0.982  -0.429  -3.351  0.00  0.00    +0.030 C 
BRANCH   2   6
ATOM      4  C   LIG    1       -0.074   1.503   0.012  0.00  0.00    +0.070 C 
ATOM      5  C   LIG    1       -0.019  -0.003   0.003  0.00  0.00    -0.110 C 
ATOM      6  C   LIG    1       -0.099  -0.654  -1.131  0.00  0.00    -0.050 C 
ATOM      7  C   LIG    1        0.128  -0.760   1.298  0.00  0.00    +0.080 C 
ENDBRANCH   2   6
ENDBRANCH   1   2
BRANCH   1   8
ATOM      8  C   LIG    1       -1.798   1.032  -3.873  0.00  0.00    +0.220 C 
BRANCH   8   9
ATOM      9  C   LIG    1       -3.143   0.738  -4.486  0.00  0.00    -0.090 A 
ATOM     10  C   LIG    1       -3.220   0.105  -5.713  0.00  0.00    +0.020 A 
ATOM     11  C   LIG    1       -4.454  -0.164  -6.275  0.00  0.00    +0.000 A 
ATOM     12  C   LIG    1       -5.611   0.199  -5.611  0.00  0.00    +0.010 A 
ATOM     13  C   LIG    1       -5.534   0.831  -4.384  0.00  0.00    +0.000 A 
ATOM     14  C   LIG    1       -4.300   1.096  -3.819  0.00  0.00    +0.020 A 
ENDBRANCH   8   9
ENDBRANCH   1   8
TORSDOF 4
ENDMDL
MODEL      528
REMARK  Name = ZINC000003875600
REMARK                            x       y       z     vdW  Elec       q    Type
REMARK                         _______ _______ _______ _____ _____    ______ ____
ROOT
ATOM      1  N   LIG    1        1.094   1.874   0.002  0.00  0.00    -0.330 N 
ENDROOT
BRANCH   1   2
ATOM      2  C   LIG    1        2.320   1.222   0.166  0.00  0.00    +0.060 A 
ATOM      3  C   LIG    1        3.062   1.417   1.324  0.00  0.00    +0.020 A 
ATOM      4  C   LIG    1        4.272   0.772   1.484  0.00  0.00    +0.020 A 
ATOM      5  C   LIG    1        4.746  -0.068   0.492  0.00  0.00    +0.030 A 
ATOM      6  C   LIG    1        4.009  -0.265  -0.662  0.00  0.00    +0.040 A 
ATOM      7  C   LIG    1        2.796   0.373  -0.825  0.00  0.00    +0.040 A 
ENDBRANCH   1   2
BRANCH   1   8
ATOM      8  C   LIG    1        1.012   3.261   0.161  0.00  0.00    +0.140 A 
ATOM      9  C   LIG    1        2.171   4.014   0.307  0.00  0.00    -0.010 A 
ATOM     10  C   LIG    1        2.087   5.383   0.464  0.00  0.00    +0.040 A 
ATOM     11  C   LIG    1        0.851   6.005   0.475  0.00  0.00    +0.010 A 
ATOM     12  C   LIG    1       -0.304   5.258   0.330  0.00  0.00    +0.040 A 
ATOM     13  C   LIG    1       -0.227   3.889   0.168  0.00  0.00    +0.000 A 
ENDBRANCH   1   8
BRANCH   1  15
ATOM     14  O   LIG    1        0.122  -0.000  -0.510  0.00  0.00    +0.000 OA
ATOM     15  N   LIG    1        0.038   1.196  -0.297  0.00  0.00    -0.110 NA
ENDBRANCH   1  15
TORSDOF 3
ENDMDL
MODEL      529
REMARK  Name = ZINC000001504550
REMARK                            x       y       z     vdW  Elec       q    Type
REMARK                         _______ _______ _______ _____ _____    ______ ____
ROOT
ATOM      1  C   LIG    1       -1.261  -0.756   0.010  0.00  0.00    -0.180 A 
ATOM      2  C   LIG    1       -2.483  -0.074   0.020  0.00  0.00    +0.070 A 
ATOM      3  C   LIG    1       -3.660  -0.778   0.027  0.00  0.00    +0.000 A 
ATOM      4  C   LIG    1       -3.639  -2.173   0.025  0.00  0.00    -0.010 A 
ATOM      5  C   LIG    1       -2.422  -2.856   0.015  0.00  0.00    +0.000 A 
ATOM      6  C   LIG    1       -1.243  -2.156   0.002  0.00  0.00    +0.080 A 
ENDROOT
BRANCH   4   7
ATOM      7  C   LIG    1       -4.913  -2.932   0.033  0.00  0.00    -0.060 A 
ATOM      8  C   LIG    1       -6.131  -2.254   0.037  0.00  0.00    +0.020 A 
ATOM      9  C   LIG    1       -7.314  -2.965   0.044  0.00  0.00    +0.010 A 
ATOM     10  C   LIG    1       -7.292  -4.349   0.048  0.00  0.00    +0.020 A 
ATOM     11  C   LIG    1       -6.086  -5.027   0.044  0.00  0.00    +0.010 A 
ATOM     12  C   LIG    1       -4.897  -4.326   0.032  0.00  0.00    +0.020 A 
ENDBRANCH   4   7
BRANCH   1  14
ATOM     13  C   LIG    1       -0.018   1.503   0.010  0.00  0.00    +0.070 C 
ATOM     14  C   LIG    1        0.002  -0.004   0.002  0.00  0.00    +0.390 C 
ATOM     15  O   LIG    1        1.060  -0.596  -0.011  0.00  0.00    -0.460 OA
ENDBRANCH   1  14
TORSDOF 2
ENDMDL
MODEL      530
REMARK  Name = ZINC000004051026
REMARK                            x       y       z     vdW  Elec       q    Type
REMARK                         _______ _______ _______ _____ _____    ______ ____
ROOT
ATOM      1  C   LIG    1       -0.016   1.358   0.009  0.00  0.00    +0.010 A 
ATOM      2  C   LIG    1        1.170   2.088   0.002  0.00  0.00    +0.030 A 
ATOM      3  C   LIG    1        2.379   1.464  -0.013  0.00  0.00    +0.040 A 
ATOM      4  C   LIG    1        2.440   0.059  -0.023  0.00  0.00    +0.130 A 
ATOM      5  N   LIG    1        3.614  -0.580  -0.040  0.00  0.00    -0.470 NA
ATOM      6  C   LIG    1        3.674  -1.894  -0.048  0.00  0.00    +0.170 A 
ATOM      7  C   LIG    1        5.037  -2.559  -0.063  0.00  0.00    +0.110 C 
ATOM      8  C   LIG    1        5.272  -3.215   1.299  0.00  0.00    +0.020 C 
ATOM      9  C   LIG    1        4.676  -4.608   1.343  0.00  0.00    +0.000 C 
ATOM     10  C   LIG    1        3.161  -4.643   1.307  0.00  0.00    +0.010 C 
ATOM     11  C   LIG    1        2.635  -4.181  -0.054  0.00  0.00    +0.080 C 
ATOM     12  C   LIG    1        2.531  -2.670  -0.040  0.00  0.00    -0.130 A 
ATOM     13  C   LIG    1        1.295  -2.088  -0.021  0.00  0.00    +0.080 A 
ATOM     14  C   LIG    1        1.232  -0.681  -0.013  0.00  0.00    -0.100 A 
ATOM     15  C   LIG    1        0.002  -0.004   0.002  0.00  0.00    +0.030 A 
ENDROOT
TORSDOF 0
ENDMDL
MODEL      531
REMARK  Name = ZINC000004026371
REMARK                            x       y       z     vdW  Elec       q    Type
REMARK                         _______ _______ _______ _____ _____    ______ ____
ROOT
ATOM      1  C   LIG    1       -0.437   1.879  -0.008  0.00  0.00    +0.040 C 
ATOM      2  C   LIG    1       -0.414   0.345  -0.114  0.00  0.00    +0.150 C 
ATOM      3  C   LIG    1       -1.852  -0.167  -0.098  0.00  0.00    -0.010 C 
ATOM      4  C   LIG    1       -1.884  -1.696   0.025  0.00  0.00    +0.020 C 
ATOM      5  C   LIG    1       -1.057  -2.100   1.245  0.00  0.00    -0.020 C 
ATOM      6  C   LIG    1       -1.196  -3.566   1.593  0.00  0.00    -0.050 C 
ATOM      7  C   LIG    1       -0.259  -3.969   2.733  0.00  0.00    +0.010 C 
ATOM      8  C   LIG    1        1.173  -3.513   2.480  0.00  0.00    +0.010 C 
ATOM      9  C   LIG    1        1.212  -1.997   2.295  0.00  0.00    +0.040 C 
ATOM     10  C   LIG    1       -0.983  -4.487   0.392  0.00  0.00    +0.030 C 
ATOM     11  C   LIG    1       -2.638  -3.806   2.102  0.00  0.00    +0.020 C 
ATOM     12  C   LIG    1        0.373  -1.608   1.075  0.00  0.00    +0.130 C 
ATOM     13  C   LIG    1        1.043  -2.148  -0.186  0.00  0.00    +0.010 C 
ATOM     14  O   LIG    1        0.334  -0.175   0.982  0.00  0.00    -0.380 OA
ENDROOT
TORSDOF 0
ENDMDL
MODEL      532
REMARK  Name = ZINC000004026369
REMARK                            x       y       z     vdW  Elec       q    Type
REMARK                         _______ _______ _______ _____ _____    ______ ____
ROOT
ATOM      1  C   LIG    1       -0.019   1.534   0.011  0.00  0.00    +0.040 C 
ATOM      2  C   LIG    1        0.002  -0.004   0.002  0.00  0.00    +0.140 C 
ATOM      3  C   LIG    1       -1.433  -0.512  -0.022  0.00  0.00    -0.020 C 
ATOM      4  C   LIG    1       -1.568  -1.973   0.367  0.00  0.00    +0.020 C 
ATOM      5  C   LIG    1       -0.683  -2.403   1.529  0.00  0.00    -0.020 C 
ATOM      6  C   LIG    1       -1.303  -2.107   2.881  0.00  0.00    -0.050 C 
ATOM      7  C   LIG    1       -0.348  -2.474   4.022  0.00  0.00    +0.010 C 
ATOM      8  C   LIG    1        0.984  -1.750   3.847  0.00  0.00    +0.010 C 
ATOM      9  C   LIG    1        1.624  -2.212   2.540  0.00  0.00    +0.040 C 
ATOM     10  C   LIG    1       -2.566  -2.974   3.056  0.00  0.00    +0.010 C 
ATOM     11  C   LIG    1       -1.711  -0.642   3.033  0.00  0.00    +0.030 C 
ATOM     12  C   LIG    1        0.729  -1.862   1.353  0.00  0.00    +0.130 C 
ATOM     13  C   LIG    1        1.357  -2.526   0.111  0.00  0.00    +0.000 C 
ATOM     14  O   LIG    1        0.698  -0.453   1.159  0.00  0.00    -0.360 OA
ENDROOT
TORSDOF 0
ENDMDL
MODEL      533
REMARK  Name = ZINC000004100251
REMARK                            x       y       z     vdW  Elec       q    Type
REMARK                         _______ _______ _______ _____ _____    ______ ____
ROOT
ATOM      1  C   LIG    1        0.002  -0.004   0.002  0.00  0.00    +0.190 C 
ATOM      2  C   LIG    1        0.765  -0.526  -1.213  0.00  0.00    -0.020 C 
ATOM      3  C   LIG    1        0.006  -0.225  -2.504  0.00  0.00    +0.010 C 
ATOM      4  C   LIG    1        0.585   1.030  -3.160  0.00  0.00    +0.000 C 
ATOM      5  C   LIG    1       -0.030   1.212  -4.552  0.00  0.00    +0.000 C 
ATOM      6  C   LIG    1       -1.030   2.373  -4.524  0.00  0.00    +0.010 C 
ATOM      7  C   LIG    1       -2.429   1.836  -4.206  0.00  0.00    +0.010 C 
ATOM      8  C   LIG    1       -3.101   2.743  -3.172  0.00  0.00    +0.000 C 
ATOM      9  C   LIG    1       -3.597   1.899  -1.995  0.00  0.00    +0.000 C 
ATOM     10  C   LIG    1       -2.418   1.585  -1.067  0.00  0.00    +0.060 C 
ATOM     11  C   LIG    1       -2.603   0.191  -0.471  0.00  0.00    -0.030 C 
ATOM     12  C   LIG    1       -2.395   0.034   1.038  0.00  0.00    +0.010 C 
ATOM     13  C   LIG    1       -1.405  -0.587   0.045  0.00  0.00    -0.040 C 
ENDROOT
BRANCH   1  14
ATOM     14  O   LIG    1       -0.017   1.417   0.010  0.00  0.00    -0.550 OA
ATOM     15  H   LIG    1        0.861   1.822   0.004  0.00  0.00    +0.380 HD
ENDBRANCH   1  14
TORSDOF 1
ENDMDL
MODEL      534
REMARK  Name = ZINC000004100254
REMARK                            x       y       z     vdW  Elec       q    Type
REMARK                         _______ _______ _______ _____ _____    ______ ____
ROOT
ATOM      1  C   LIG    1        0.002  -0.004   0.002  0.00  0.00    +0.200 C 
ATOM      2  C   LIG    1        0.719  -0.497  -1.257  0.00  0.00    -0.010 C 
ATOM      3  C   LIG    1        2.132  -0.956  -0.894  0.00  0.00    -0.010 C 
ATOM      4  C   LIG    1        2.211  -2.481  -0.976  0.00  0.00    +0.010 C 
ATOM      5  C   LIG    1        2.897  -3.026   0.279  0.00  0.00    +0.010 C 
ATOM      6  C   LIG    1        2.213  -4.325   0.710  0.00  0.00    +0.010 C 
ATOM      7  C   LIG    1        1.802  -4.224   2.180  0.00  0.00    +0.000 C 
ATOM      8  C   LIG    1        0.376  -3.679   2.274  0.00  0.00    +0.000 C 
ATOM      9  C   LIG    1        0.362  -2.213   1.835  0.00  0.00    +0.010 C 
ATOM     10  C   LIG    1       -0.892  -1.525   2.376  0.00  0.00    +0.030 C 
ATOM     11  C   LIG    1       -1.896  -1.320   1.241  0.00  0.00    -0.030 C 
ATOM     12  C   LIG    1       -2.412   0.101   1.003  0.00  0.00    +0.030 C 
ATOM     13  C   LIG    1       -1.433  -0.533   0.013  0.00  0.00    -0.040 C 
ENDROOT
BRANCH   1  14
ATOM     14  O   LIG    1       -0.017   1.425   0.010  0.00  0.00    -0.570 OA
ATOM     15  H   LIG    1        0.861   1.830   0.004  0.00  0.00    +0.380 HD
ENDBRANCH   1  14
TORSDOF 1
ENDMDL
MODEL      535
REMARK  Name = ZINC000004100252
REMARK                            x       y       z     vdW  Elec       q    Type
REMARK                         _______ _______ _______ _____ _____    ______ ____
ROOT
ATOM      1  C   LIG    1        0.002  -0.004   0.002  0.00  0.00    +0.180 C 
ATOM      2  C   LIG    1        0.718  -0.497  -1.257  0.00  0.00    -0.010 C 
ATOM      3  C   LIG    1       -0.268  -0.522  -2.427  0.00  0.00    +0.020 C 
ATOM      4  C   LIG    1        0.365   0.161  -3.641  0.00  0.00    -0.010 C 
ATOM      5  C   LIG    1       -0.355  -0.291  -4.913  0.00  0.00    +0.000 C 
ATOM      6  C   LIG    1       -1.604   0.568  -5.125  0.00  0.00    +0.010 C 
ATOM      7  C   LIG    1       -2.809  -0.117  -4.478  0.00  0.00    +0.000 C 
ATOM      8  C   LIG    1       -3.106   0.541  -3.129  0.00  0.00    +0.010 C 
ATOM      9  C   LIG    1       -3.458  -0.537  -2.102  0.00  0.00    +0.000 C 
ATOM     10  C   LIG    1       -3.838   0.128  -0.777  0.00  0.00    +0.030 C 
ATOM     11  C   LIG    1       -2.567   0.494  -0.008  0.00  0.00    -0.020 C 
ATOM     12  C   LIG    1       -2.267  -0.288   1.272  0.00  0.00    +0.000 C 
ATOM     13  C   LIG    1       -1.433  -0.534   0.013  0.00  0.00    -0.030 C 
ENDROOT
BRANCH   1  14
ATOM     14  O   LIG    1       -0.017   1.425   0.010  0.00  0.00    -0.560 OA
ATOM     15  H   LIG    1        0.861   1.830   0.004  0.00  0.00    +0.380 HD
ENDBRANCH   1  14
TORSDOF 1
ENDMDL
MODEL      536
REMARK  Name = ZINC000004288680
REMARK                            x       y       z     vdW  Elec       q    Type
REMARK                         _______ _______ _______ _____ _____    ______ ____
ROOT
ATOM      1  C   LIG    1       -0.017   1.374   0.010  0.00  0.00    +0.020 A 
ATOM      2  C   LIG    1        1.167   2.099   0.002  0.00  0.00    -0.030 A 
ATOM      3  C   LIG    1        2.374   1.458  -0.011  0.00  0.00    +0.050 A 
ATOM      4  C   LIG    1        2.414   0.063  -0.021  0.00  0.00    -0.110 A 
ATOM      5  C   LIG    1        1.220  -0.676  -0.016  0.00  0.00    +0.100 A 
ATOM      6  N   LIG    1        1.572  -2.004  -0.038  0.00  0.00    -0.600 N 
ATOM      7  H   LIG    1        0.948  -2.746  -0.029  0.00  0.00    +0.410 HD
ATOM      8  C   LIG    1        2.941  -2.125  -0.076  0.00  0.00    +0.090 A 
ATOM      9  C   LIG    1        3.654  -3.450  -0.228  0.00  0.00    +0.100 C 
ATOM     10  C   LIG    1        4.090  -3.579  -1.694  0.00  0.00    +0.020 C 
ATOM     11  C   LIG    1        4.896  -2.333  -2.072  0.00  0.00    +0.010 C 
ATOM     12  C   LIG    1        6.133  -2.330  -1.197  0.00  0.00    +0.000 C 
ATOM     13  C   LIG    1        5.896  -1.715   0.173  0.00  0.00    +0.010 C 
ATOM     14  C   LIG    1        4.963  -0.508   0.084  0.00  0.00    +0.100 C 
ATOM     15  C   LIG    1        3.513  -0.920  -0.029  0.00  0.00    -0.160 A 
ATOM     16  C   LIG    1        0.002  -0.004   0.002  0.00  0.00    -0.010 A 
ENDROOT
TORSDOF 0
ENDMDL
MODEL      537
REMARK  Name = ZINC000001562199
REMARK                            x       y       z     vdW  Elec       q    Type
REMARK                         _______ _______ _______ _____ _____    ______ ____
ROOT
ATOM      1  C   LIG    1       -1.262  -0.757   0.010  0.00  0.00    -0.170 A 
ATOM      2  C   LIG    1       -2.485  -0.077   0.019  0.00  0.00    +0.060 A 
ATOM      3  C   LIG    1       -3.670  -0.784   0.027  0.00  0.00    +0.000 A 
ATOM      4  C   LIG    1       -3.657  -2.165   0.025  0.00  0.00    +0.050 A 
ATOM      5  C   LIG    1       -2.446  -2.857   0.016  0.00  0.00    -0.060 A 
ATOM      6  C   LIG    1       -1.246  -2.154   0.002  0.00  0.00    +0.090 A 
ENDROOT
BRANCH   5   7
ATOM      7  C   LIG    1       -2.437  -4.341   0.015  0.00  0.00    -0.050 A 
ATOM      8  C   LIG    1       -1.228  -5.033   0.011  0.00  0.00    +0.020 A 
ATOM      9  C   LIG    1       -1.226  -6.413   0.011  0.00  0.00    +0.010 A 
ATOM     10  C   LIG    1       -2.421  -7.109   0.013  0.00  0.00    +0.000 A 
ATOM     11  C   LIG    1       -3.624  -6.427   0.015  0.00  0.00    +0.010 A 
ATOM     12  C   LIG    1       -3.638  -5.047   0.022  0.00  0.00    +0.020 A 
ENDBRANCH   5   7
BRANCH   1  14
ATOM     13  C   LIG    1       -0.018   1.503   0.010  0.00  0.00    +0.070 C 
ATOM     14  C   LIG    1        0.002  -0.004   0.002  0.00  0.00    +0.390 C 
ATOM     15  O   LIG    1        1.060  -0.596  -0.011  0.00  0.00    -0.460 OA
ENDBRANCH   1  14
TORSDOF 2
ENDMDL
MODEL      538
REMARK  Name = ZINC000002515950
REMARK                            x       y       z     vdW  Elec       q    Type
REMARK                         _______ _______ _______ _____ _____    ______ ____
ROOT
ATOM      1  C   LIG    1       -0.273  -0.783  -1.277  0.00  0.00    -0.160 A 
ATOM      2  C   LIG    1       -0.389  -0.087  -2.484  0.00  0.00    +0.070 A 
ATOM      3  C   LIG    1       -0.121  -0.726  -3.675  0.00  0.00    +0.000 A 
ATOM      4  C   LIG    1        0.264  -2.057  -3.687  0.00  0.00    +0.040 A 
ATOM      5  C   LIG    1        0.385  -2.762  -2.506  0.00  0.00    +0.010 A 
ATOM      6  C   LIG    1        0.125  -2.135  -1.291  0.00  0.00    +0.010 A 
ENDROOT
BRANCH   6   7
ATOM      7  C   LIG    1        0.253  -2.888  -0.021  0.00  0.00    -0.050 A 
ATOM      8  C   LIG    1        1.122  -2.439   0.973  0.00  0.00    +0.050 A 
ATOM      9  C   LIG    1        1.237  -3.144   2.154  0.00  0.00    +0.000 A 
ATOM     10  C   LIG    1        0.493  -4.294   2.352  0.00  0.00    +0.010 A 
ATOM     11  C   LIG    1       -0.370  -4.744   1.369  0.00  0.00    -0.010 A 
ATOM     12  C   LIG    1       -0.498  -4.044   0.186  0.00  0.00    +0.020 A 
ENDBRANCH   6   7
BRANCH   1  14
ATOM     13  C   LIG    1       -0.837   1.372   0.019  0.00  0.00    +0.080 C 
ATOM     14  C   LIG    1       -0.556  -0.109  -0.004  0.00  0.00    +0.380 C 
ATOM     15  O   LIG    1       -0.565  -0.743   1.030  0.00  0.00    -0.440 OA
ENDBRANCH   1  14
TORSDOF 2
ENDMDL
MODEL      539
REMARK  Name = ZINC000004706224
REMARK                            x       y       z     vdW  Elec       q    Type
REMARK                         _______ _______ _______ _____ _____    ______ ____
ROOT
ATOM      1  C   LIG    1        0.478  -0.017  -0.026  0.00  0.00    +0.110 A 
ATOM      2  C   LIG    1       -0.397  -0.635  -0.910  0.00  0.00    -0.020 A 
ATOM      3  C   LIG    1       -0.521  -2.007  -0.912  0.00  0.00    +0.040 A 
ATOM      4  C   LIG    1        0.234  -2.777  -0.024  0.00  0.00    -0.070 A 
ATOM      5  C   LIG    1        1.114  -2.151   0.864  0.00  0.00    +0.050 A 
ATOM      6  C   LIG    1        1.236  -0.778   0.855  0.00  0.00    -0.020 A 
ENDROOT
BRANCH   1   7
ATOM      7  O   LIG    1        0.598   1.337  -0.026  0.00  0.00    -0.500 OA
ATOM      8  H   LIG    1        1.276   1.671  -0.629  0.00  0.00    +0.390 HD
ENDBRANCH   1   7
BRANCH   4   9
ATOM      9  C   LIG    1        0.105  -4.245  -0.023  0.00  0.00    +0.020 C 
ATOM     10  C   LIG    1        0.175  -4.925   1.133  0.00  0.00    +0.020 C 
BRANCH  10  11
ATOM     11  C   LIG    1        0.172  -4.199   2.416  0.00  0.00    -0.060 A 
ATOM     12  C   LIG    1       -0.624  -3.062   2.577  0.00  0.00    +0.020 A 
ATOM     13  C   LIG    1       -0.623  -2.388   3.780  0.00  0.00    +0.000 A 
ATOM     14  C   LIG    1        0.164  -2.836   4.827  0.00  0.00    +0.000 A 
ATOM     15  C   LIG    1        0.955  -3.961   4.675  0.00  0.00    +0.000 A 
ATOM     16  C   LIG    1        0.959  -4.648   3.479  0.00  0.00    +0.010 A 
ENDBRANCH  10  11
ENDBRANCH   4   9
TORSDOF 3
ENDMDL
MODEL      540
REMARK  Name = ZINC000004677763
REMARK                            x       y       z     vdW  Elec       q    Type
REMARK                         _______ _______ _______ _____ _____    ______ ____
ROOT
ATOM      1  C   LIG    1        3.476   0.748  -0.026  0.00  0.00    +0.150 A 
ATOM      2  C   LIG    1        4.167  -0.431  -0.045  0.00  0.00    +0.000 A 
ATOM      3  C   LIG    1        5.571  -0.413  -0.058  0.00  0.00    -0.030 A 
ATOM      4  C   LIG    1        6.315  -1.605  -0.077  0.00  0.00    +0.020 A 
ATOM      5  C   LIG    1        7.675  -1.550  -0.090  0.00  0.00    +0.020 A 
ATOM      6  C   LIG    1        8.344  -0.328  -0.082  0.00  0.00    +0.010 A 
ATOM      7  C   LIG    1        7.656   0.847  -0.063  0.00  0.00    +0.030 A 
ATOM      8  C   LIG    1        6.251   0.831  -0.051  0.00  0.00    -0.070 A 
ATOM      9  C   LIG    1        5.509   2.025  -0.032  0.00  0.00    +0.070 A 
ATOM     10  C   LIG    1        4.150   1.974  -0.025  0.00  0.00    -0.010 A 
ENDROOT
BRANCH   1  13
ATOM     11  C   LIG    1       -0.017   1.405   0.010  0.00  0.00    -0.050 A 
ATOM     12  C   LIG    1        1.264   1.827  -0.000  0.00  0.00    +0.150 A 
ATOM     13  N   LIG    1        2.075   0.729  -0.014  0.00  0.00    -0.400 N 
ATOM     14  C   LIG    1        1.294  -0.391  -0.012  0.00  0.00    +0.140 A 
ATOM     15  C   LIG    1        0.002  -0.004   0.002  0.00  0.00    -0.050 A 
ENDBRANCH   1  13
TORSDOF 1
ENDMDL
MODEL      541
REMARK  Name = ZINC000054962211
REMARK                            x       y       z     vdW  Elec       q    Type
REMARK                         _______ _______ _______ _____ _____    ______ ____
ROOT
ATOM      1  C   LIG    1       -0.019   1.526   0.010  0.00  0.00    +0.010 C 
ATOM      2  C   LIG    1        0.002  -0.004   0.002  0.00  0.00    -0.060 C 
ATOM      3  C   LIG    1        0.718  -0.497  -1.257  0.00  0.00    +0.020 C 
ATOM      4  C   LIG    1        0.739  -2.027  -1.265  0.00  0.00    -0.020 C 
ATOM      5  C   LIG    1        1.479  -2.534  -0.026  0.00  0.00    +0.010 C 
ATOM      6  C   LIG    1        0.763  -2.041   1.233  0.00  0.00    -0.020 C 
ATOM      7  C   LIG    1       -0.673  -2.570   1.244  0.00  0.00    +0.020 C 
ATOM      8  C   LIG    1       -1.413  -2.063   0.004  0.00  0.00    -0.060 C 
ATOM      9  C   LIG    1       -2.848  -2.593   0.015  0.00  0.00    +0.010 C 
ATOM     10  C   LIG    1       -0.696  -2.557  -1.254  0.00  0.00    +0.020 C 
ATOM     11  C   LIG    1       -1.433  -0.534   0.013  0.00  0.00    +0.020 C 
ATOM     12  C   LIG    1        0.742  -0.511   1.242  0.00  0.00    +0.020 C 
ENDROOT
TORSDOF 0
ENDMDL
MODEL      542
REMARK  Name = ZINC000055168351
REMARK                            x       y       z     vdW  Elec       q    Type
REMARK                         _______ _______ _______ _____ _____    ______ ____
ROOT
ATOM      1  C   LIG    1       -2.826  -2.585   0.015  0.00  0.00    -0.120 C 
ATOM      2  C   LIG    1       -3.529  -2.940  -1.046  0.00  0.00    +0.000 C 
ATOM      3  C   LIG    1       -4.874  -3.404  -0.661  0.00  0.00    -0.070 A 
ATOM      4  C   LIG    1       -5.953  -3.870  -1.417  0.00  0.00    +0.020 A 
ATOM      5  C   LIG    1       -7.121  -4.246  -0.788  0.00  0.00    +0.000 A 
ATOM      6  C   LIG    1       -7.233  -4.163   0.588  0.00  0.00    +0.010 A 
ATOM      7  C   LIG    1       -6.169  -3.702   1.345  0.00  0.00    +0.020 A 
ATOM      8  C   LIG    1       -4.999  -3.325   0.728  0.00  0.00    -0.100 A 
ATOM      9  C   LIG    1       -3.682  -2.798   1.242  0.00  0.00    +0.140 C 
ENDROOT
BRANCH   1  10
ATOM     10  C   LIG    1       -1.413  -2.063   0.004  0.00  0.00    +0.080 C 
BRANCH  10  11
ATOM     11  C   LIG    1       -1.433  -0.534   0.013  0.00  0.00    +0.010 C 
BRANCH  11  13
ATOM     12  C   LIG    1       -0.019   1.526   0.010  0.00  0.00    +0.000 C 
ATOM     13  C   LIG    1        0.002  -0.004   0.002  0.00  0.00    -0.010 C 
ENDBRANCH  11  13
ENDBRANCH  10  11
ENDBRANCH   1  10
TORSDOF 3
ENDMDL
MODEL      543
REMARK  Name = ZINC000004975106
REMARK                            x       y       z     vdW  Elec       q    Type
REMARK                         _______ _______ _______ _____ _____    ______ ____
ROOT
ATOM      1  C   LIG    1       -1.433  -0.534   0.013  0.00  0.00    -0.020 C 
ATOM      2  C   LIG    1       -2.173  -0.027  -1.227  0.00  0.00    +0.010 C 
ATOM      3  C   LIG    1       -1.289   0.973  -1.975  0.00  0.00    +0.000 C 
ATOM      4  C   LIG    1       -1.163   0.546  -3.439  0.00  0.00    +0.010 C 
ATOM      5  C   LIG    1        0.316   0.458  -3.819  0.00  0.00    +0.000 C 
ATOM      6  C   LIG    1        0.608  -0.918  -4.420  0.00  0.00    +0.010 C 
ATOM      7  C   LIG    1        1.778  -1.563  -3.675  0.00  0.00    +0.000 C 
ATOM      8  C   LIG    1        1.369  -2.955  -3.189  0.00  0.00    +0.010 C 
ATOM      9  C   LIG    1        1.634  -3.069  -1.687  0.00  0.00    +0.000 C 
ATOM     10  C   LIG    1        0.358  -3.527  -0.977  0.00  0.00    -0.020 C 
ATOM     11  C   LIG    1        0.028  -2.555   0.157  0.00  0.00    +0.010 C 
ATOM     12  C   LIG    1       -1.413  -2.063   0.004  0.00  0.00    +0.010 C 
ENDROOT
BRANCH   1  13
ATOM     13  C   LIG    1        0.002  -0.004   0.002  0.00  0.00    +0.180 C 
BRANCH  13  14
ATOM     14  O   LIG    1        0.647  -0.350   1.230  0.00  0.00    -0.570 OA
ATOM     15  H   LIG    1        1.562  -0.045   1.293  0.00  0.00    +0.380 HD
ENDBRANCH  13  14
ENDBRANCH   1  13
TORSDOF 2
ENDMDL
MODEL      544
REMARK  Name = ZINC000057606821
REMARK                            x       y       z     vdW  Elec       q    Type
REMARK                         _______ _______ _______ _____ _____    ______ ____
ROOT
ATOM      1  C   LIG    1       -0.018   1.503   0.010  0.00  0.00    +0.090 C 
ATOM      2  C   LIG    1        0.002  -0.004   0.002  0.00  0.00    -0.090 A 
ATOM      3  C   LIG    1        0.006  -0.689  -1.199  0.00  0.00    +0.000 A 
ATOM      4  C   LIG    1        0.025  -2.071  -1.206  0.00  0.00    +0.010 A 
ATOM      5  C   LIG    1        0.040  -2.768  -0.013  0.00  0.00    -0.080 A 
ATOM      6  C   LIG    1        0.038  -2.084   1.188  0.00  0.00    +0.010 A 
ATOM      7  C   LIG    1        0.023  -0.702   1.195  0.00  0.00    +0.000 A 
ENDROOT
BRANCH   5   8
ATOM      8  C   LIG    1        0.060  -4.275  -0.021  0.00  0.00    +0.030 C 
ATOM      9  C   LIG    1        1.257  -4.806   0.806  0.00  0.00    +0.020 C 
ATOM     10  C   LIG    1        0.797  -6.233   1.195  0.00  0.00    +0.010 C 
ATOM     11  C   LIG    1       -0.712  -6.080   1.478  0.00  0.00    -0.010 C 
ATOM     12  C   LIG    1       -1.180  -4.836   0.705  0.00  0.00    +0.010 C 
ENDBRANCH   5   8
TORSDOF 1
ENDMDL
MODEL      545
REMARK  Name = ZINC000005139966
REMARK                            x       y       z     vdW  Elec       q    Type
REMARK                         _______ _______ _______ _____ _____    ______ ____
ROOT
ATOM      1  C   LIG    1       -3.472  -0.050   1.336  0.00  0.00    +0.220 A 
ATOM      2  C   LIG    1       -4.243  -0.296   0.207  0.00  0.00    -0.080 A 
ATOM      3  C   LIG    1       -5.618  -0.184   0.274  0.00  0.00    -0.040 A 
ATOM      4  C   LIG    1       -6.228   0.172   1.462  0.00  0.00    -0.060 A 
ATOM      5  C   LIG    1       -5.463   0.418   2.588  0.00  0.00    +0.050 A 
ATOM      6  C   LIG    1       -6.455  -0.452  -0.951  0.00  0.00    +0.080 C 
ATOM      7  C   LIG    1       -4.089   0.303   2.530  0.00  0.00    -0.170 A 
ATOM      8  C   LIG    1       -3.257   0.572   3.758  0.00  0.00    +0.090 C 
ENDROOT
BRANCH   1   9
ATOM      9  N   LIG    1       -2.082  -0.162   1.273  0.00  0.00    -0.740 N 
ATOM     10  H   LIG    1       -1.545   0.006   2.063  0.00  0.00    +0.400 HD
BRANCH   9  11
ATOM     11  C   LIG    1       -1.433  -0.534   0.013  0.00  0.00    +0.230 C 
ATOM     12  C   LIG    1       -1.416  -2.058  -0.121  0.00  0.00    +0.010 C 
BRANCH  11  14
ATOM     13  C   LIG    1       -0.019   1.526   0.010  0.00  0.00    +0.020 C 
ATOM     14  C   LIG    1        0.002  -0.004   0.002  0.00  0.00    +0.020 C 
ENDBRANCH  11  14
ENDBRANCH   9  11
ENDBRANCH   1   9
TORSDOF 3
ENDMDL
MODEL      546
REMARK  Name = ZINC000005377809
REMARK                            x       y       z     vdW  Elec       q    Type
REMARK                         _______ _______ _______ _____ _____    ______ ____
ROOT
ATOM      1  C   LIG    1       -3.853  -1.118  -0.117  0.00  0.00    -0.140 A 
ATOM      2  C   LIG    1       -4.199  -1.608  -1.370  0.00  0.00    +0.060 A 
ATOM      3  C   LIG    1       -5.125  -2.626  -1.480  0.00  0.00    +0.000 A 
ATOM      4  C   LIG    1       -5.709  -3.158  -0.345  0.00  0.00    +0.040 A 
ATOM      5  C   LIG    1       -5.367  -2.673   0.904  0.00  0.00    +0.000 A 
ATOM      6  C   LIG    1       -4.437  -1.659   1.022  0.00  0.00    +0.060 A 
ENDROOT
BRANCH   1   7
ATOM      7  S   LIG    1       -2.671   0.180   0.029  0.00  0.00    -0.030 S 
BRANCH   7  10
ATOM      8  C   LIG    1       -0.017   1.499   0.018  0.00  0.00    +0.090 C 
ATOM      9  C   LIG    1        0.002  -0.007   0.029  0.00  0.00    -0.100 C 
ATOM     10  C   LIG    1       -1.134  -0.682   0.034  0.00  0.00    -0.080 C 
ATOM     11  C   LIG    1        1.316  -0.745   0.034  0.00  0.00    +0.090 C 
ENDBRANCH   7  10
ENDBRANCH   1   7
TORSDOF 2
ENDMDL
MODEL      547
REMARK  Name = ZINC000095611646
REMARK                            x       y       z     vdW  Elec       q    Type
REMARK                         _______ _______ _______ _____ _____    ______ ____
ROOT
ATOM      1  C   LIG    1        1.881  -0.090  -3.323  0.00  0.00    +0.000 C 
ATOM      2  C   LIG    1        2.366   0.785  -4.197  0.00  0.00    -0.060 C 
ENDROOT
BRANCH   1   4
ATOM      3  C   LIG    1        0.707  -0.490  -1.238  0.00  0.00    -0.020 C 
ATOM      4  C   LIG    1        1.192   0.385  -2.112  0.00  0.00    -0.020 C 
BRANCH   3   6
ATOM      5  C   LIG    1       -0.019   1.526   0.010  0.00  0.00    +0.030 C 
ATOM      6  C   LIG    1        0.002  -0.004   0.002  0.00  0.00    -0.040 C 
ATOM      7  C   LIG    1       -1.433  -0.534   0.013  0.00  0.00    +0.040 C 
ATOM      8  C   LIG    1        0.742  -0.511   1.242  0.00  0.00    +0.040 C 
ENDBRANCH   3   6
ENDBRANCH   1   4
BRANCH   2   9
ATOM      9  C   LIG    1        3.071   0.299  -5.437  0.00  0.00    +0.260 C 
BRANCH   9  10
ATOM     10  C   LIG    1        2.406   0.907  -6.674  0.00  0.00    -0.090 C 
ATOM     11  C   LIG    1        0.937   0.483  -6.723  0.00  0.00    +0.020 C 
ATOM     12  C   LIG    1        3.122   0.414  -7.933  0.00  0.00    +0.020 C 
ATOM     13  C   LIG    1        2.494   2.433  -6.602  0.00  0.00    +0.040 C 
ENDBRANCH   9  10
BRANCH   9  14
ATOM     14  O   LIG    1        2.989  -1.126  -5.504  0.00  0.00    -0.560 OA
ATOM     15  H   LIG    1        2.085  -1.466  -5.538  0.00  0.00    +0.370 HD
ENDBRANCH   9  14
ENDBRANCH   2   9
TORSDOF 5
ENDMDL
MODEL      548
REMARK  Name = ZINC000059291015
REMARK                            x       y       z     vdW  Elec       q    Type
REMARK                         _______ _______ _______ _____ _____    ______ ____
ROOT
ATOM      1  C   LIG    1       -2.828  -4.100   0.007  0.00  0.00    -0.020 A 
ATOM      2  C   LIG    1       -2.824  -4.784  -1.194  0.00  0.00    -0.020 A 
ATOM      3  C   LIG    1       -2.805  -6.168  -1.203  0.00  0.00    +0.130 A 
ATOM      4  C   LIG    1       -2.789  -6.867  -0.008  0.00  0.00    -0.050 A 
ATOM      5  C   LIG    1       -2.793  -6.181   1.194  0.00  0.00    +0.130 A 
ATOM      6  F   LIG    1       -2.778  -6.862   2.361  0.00  0.00    -0.130 F 
ATOM      7  F   LIG    1       -2.801  -6.837  -2.377  0.00  0.00    -0.130 F 
ATOM      8  C   LIG    1       -2.807  -4.797   1.200  0.00  0.00    -0.020 A 
ENDROOT
BRANCH   1   9
ATOM      9  C   LIG    1       -2.848  -2.593   0.015  0.00  0.00    +0.080 C 
BRANCH   9  10
ATOM     10  C   LIG    1       -1.413  -2.063   0.004  0.00  0.00    +0.020 C 
BRANCH  10  11
ATOM     11  C   LIG    1       -1.433  -0.534   0.013  0.00  0.00    +0.000 C 
BRANCH  11  13
ATOM     12  C   LIG    1       -0.019   1.526   0.010  0.00  0.00    +0.000 C 
ATOM     13  C   LIG    1        0.002  -0.004   0.002  0.00  0.00    -0.010 C 
ENDBRANCH  11  13
ENDBRANCH  10  11
ENDBRANCH   9  10
ENDBRANCH   1   9
TORSDOF 4
ENDMDL
MODEL      549
REMARK  Name = ZINC000095611645
REMARK                            x       y       z     vdW  Elec       q    Type
REMARK                         _______ _______ _______ _____ _____    ______ ____
ROOT
ATOM      1  C   LIG    1        1.881  -0.090  -3.323  0.00  0.00    +0.000 C 
ATOM      2  C   LIG    1        2.366   0.785  -4.197  0.00  0.00    -0.070 C 
ENDROOT
BRANCH   1   4
ATOM      3  C   LIG    1        0.707  -0.490  -1.238  0.00  0.00    -0.020 C 
ATOM      4  C   LIG    1        1.192   0.385  -2.112  0.00  0.00    -0.020 C 
BRANCH   3   6
ATOM      5  C   LIG    1       -0.019   1.526   0.010  0.00  0.00    +0.030 C 
ATOM      6  C   LIG    1        0.002  -0.004   0.002  0.00  0.00    -0.040 C 
ATOM      7  C   LIG    1       -1.433  -0.534   0.013  0.00  0.00    +0.040 C 
ATOM      8  C   LIG    1        0.742  -0.511   1.242  0.00  0.00    +0.040 C 
ENDBRANCH   3   6
ENDBRANCH   1   4
BRANCH   2   9
ATOM      9  C   LIG    1        3.071   0.299  -5.437  0.00  0.00    +0.250 C 
BRANCH   9  10
ATOM     10  C   LIG    1        2.331   0.806  -6.677  0.00  0.00    -0.100 C 
ATOM     11  C   LIG    1        0.896   0.277  -6.666  0.00  0.00    +0.040 C 
ATOM     12  C   LIG    1        3.047   0.313  -7.936  0.00  0.00    +0.020 C 
ATOM     13  C   LIG    1        2.310   2.336  -6.668  0.00  0.00    +0.030 C 
ENDBRANCH   9  10
BRANCH   9  14
ATOM     14  O   LIG    1        4.412   0.794  -5.447  0.00  0.00    -0.550 OA
ATOM     15  H   LIG    1        4.475   1.759  -5.443  0.00  0.00    +0.370 HD
ENDBRANCH   9  14
ENDBRANCH   2   9
TORSDOF 5
ENDMDL
MODEL      550
REMARK  Name = ZINC000038078367
REMARK                            x       y       z     vdW  Elec       q    Type
REMARK                         _______ _______ _______ _____ _____    ______ ____
ROOT
ATOM      1  C   LIG    1        0.701  -1.887  -1.478  0.00  0.00    -0.160 A 
ATOM      2  C   LIG    1        0.129  -2.795  -0.580  0.00  0.00    +0.070 A 
ATOM      3  C   LIG    1        0.138  -4.143  -0.868  0.00  0.00    +0.010 A 
ATOM      4  C   LIG    1        0.711  -4.601  -2.042  0.00  0.00    +0.060 A 
ATOM      5  C   LIG    1        1.280  -3.711  -2.936  0.00  0.00    +0.010 A 
ATOM      6  C   LIG    1        1.273  -2.357  -2.666  0.00  0.00    +0.010 A 
ATOM      7 CL   LIG    1        1.987  -1.242  -3.789  0.00  0.00    -0.030 Cl
ENDROOT
BRANCH   1   8
ATOM      8  C   LIG    1        0.696  -0.448  -1.179  0.00  0.00    +0.400 C 
ATOM      9  O   LIG    1        1.283   0.325  -1.905  0.00  0.00    -0.420 OA
BRANCH   8  11
ATOM     10  C   LIG    1        0.013   1.597   0.048  0.00  0.00    +0.050 C 
ATOM     11  C   LIG    1       -0.040   0.068   0.032  0.00  0.00    -0.110 C 
ATOM     12  C   LIG    1       -1.498  -0.392  -0.024  0.00  0.00    +0.050 C 
ATOM     13  C   LIG    1        0.619  -0.479   1.300  0.00  0.00    +0.050 C 
ENDBRANCH   8  11
ENDBRANCH   1   8
TORSDOF 2
ENDMDL
MODEL      551
REMARK  Name = ZINC000002514234
REMARK                            x       y       z     vdW  Elec       q    Type
REMARK                         _______ _______ _______ _____ _____    ______ ____
ROOT
ATOM      1  C   LIG    1        0.698  -1.877  -1.478  0.00  0.00    -0.160 A 
ATOM      2  C   LIG    1        0.111  -2.785  -0.590  0.00  0.00    +0.090 A 
ATOM      3  C   LIG    1        0.113  -4.131  -0.885  0.00  0.00    +0.020 A 
ATOM      4  C   LIG    1        0.693  -4.586  -2.058  0.00  0.00    -0.010 A 
ATOM      5  C   LIG    1        1.277  -3.693  -2.942  0.00  0.00    +0.020 A 
ATOM      6 CL   LIG    1        0.690  -6.284  -2.422  0.00  0.00    -0.060 Cl
ATOM      7  C   LIG    1        1.278  -2.344  -2.663  0.00  0.00    +0.090 A 
ENDROOT
BRANCH   1   8
ATOM      8  C   LIG    1        0.700  -0.439  -1.171  0.00  0.00    +0.410 C 
ATOM      9  O   LIG    1        1.300   0.334  -1.888  0.00  0.00    -0.440 OA
BRANCH   8  11
ATOM     10  C   LIG    1        0.020   1.603   0.061  0.00  0.00    +0.040 C 
ATOM     11  C   LIG    1       -0.042   0.074   0.036  0.00  0.00    -0.110 C 
ATOM     12  C   LIG    1       -1.503  -0.375  -0.035  0.00  0.00    +0.050 C 
ATOM     13  C   LIG    1        0.602  -0.483   1.307  0.00  0.00    +0.050 C 
ENDBRANCH   8  11
ENDBRANCH   1   8
TORSDOF 2
ENDMDL
MODEL      552
REMARK  Name = ZINC000002514233
REMARK                            x       y       z     vdW  Elec       q    Type
REMARK                         _______ _______ _______ _____ _____    ______ ____
ROOT
ATOM      1  C   LIG    1        0.699  -1.879  -1.480  0.00  0.00    -0.150 A 
ATOM      2  C   LIG    1        0.113  -2.787  -0.593  0.00  0.00    +0.070 A 
ATOM      3  C   LIG    1        0.115  -4.134  -0.888  0.00  0.00    +0.020 A 
ATOM      4  C   LIG    1        0.695  -4.589  -2.059  0.00  0.00    +0.060 A 
ATOM      5  C   LIG    1        1.278  -3.696  -2.943  0.00  0.00    -0.050 A 
ATOM      6 CL   LIG    1        2.003  -4.279  -4.409  0.00  0.00    -0.060 Cl
ATOM      7  C   LIG    1        1.278  -2.345  -2.665  0.00  0.00    +0.080 A 
ENDROOT
BRANCH   1   8
ATOM      8  C   LIG    1        0.701  -0.440  -1.172  0.00  0.00    +0.410 C 
ATOM      9  O   LIG    1        1.299   0.333  -1.889  0.00  0.00    -0.440 OA
BRANCH   8  11
ATOM     10  C   LIG    1        0.020   1.601   0.060  0.00  0.00    +0.050 C 
ATOM     11  C   LIG    1       -0.042   0.073   0.035  0.00  0.00    -0.110 C 
ATOM     12  C   LIG    1       -1.502  -0.377  -0.035  0.00  0.00    +0.050 C 
ATOM     13  C   LIG    1        0.603  -0.485   1.306  0.00  0.00    +0.050 C 
ENDBRANCH   8  11
ENDBRANCH   1   8
TORSDOF 2
ENDMDL
MODEL      553
REMARK  Name = ZINC000059681824
REMARK                            x       y       z     vdW  Elec       q    Type
REMARK                         _______ _______ _______ _____ _____    ______ ____
ROOT
ATOM      1  C   LIG    1       -1.433  -0.534   0.013  0.00  0.00    -0.050 C 
ATOM      2  C   LIG    1       -2.173  -0.027  -1.227  0.00  0.00    +0.020 C 
ATOM      3  C   LIG    1       -3.609  -0.556  -1.216  0.00  0.00    -0.020 C 
ATOM      4  C   LIG    1       -4.325  -0.063   0.043  0.00  0.00    +0.010 C 
ATOM      5  C   LIG    1       -3.585  -0.570   1.282  0.00  0.00    -0.020 C 
ATOM      6  C   LIG    1       -3.564  -2.100   1.274  0.00  0.00    +0.010 C 
ATOM      7  C   LIG    1       -2.848  -2.593   0.015  0.00  0.00    -0.020 C 
ATOM      8  C   LIG    1       -3.588  -2.086  -1.224  0.00  0.00    +0.010 C 
ATOM      9  C   LIG    1       -2.149  -0.040   1.272  0.00  0.00    +0.020 C 
ATOM     10  C   LIG    1       -1.413  -2.063   0.004  0.00  0.00    +0.020 C 
ENDROOT
BRANCH   1  12
ATOM     11  C   LIG    1       -0.019   1.526   0.010  0.00  0.00    +0.010 C 
ATOM     12  C   LIG    1        0.002  -0.004   0.002  0.00  0.00    +0.010 C 
ENDBRANCH   1  12
TORSDOF 1
ENDMDL
MODEL      554
REMARK  Name = ZINC000059784760
REMARK                            x       y       z     vdW  Elec       q    Type
REMARK                         _______ _______ _______ _____ _____    ______ ____
ROOT
ATOM      1  C   LIG    1       -2.913  -3.908   0.009  0.00  0.00    +0.140 A 
ATOM      2  C   LIG    1       -1.802  -4.739  -0.001  0.00  0.00    -0.080 A 
ATOM      3  C   LIG    1       -1.966  -6.111  -0.006  0.00  0.00    +0.070 A 
ATOM      4  C   LIG    1       -3.237  -6.656  -0.003  0.00  0.00    -0.010 A 
ATOM      5  C   LIG    1       -4.347  -5.830   0.006  0.00  0.00    +0.000 A 
ATOM      6 CL   LIG    1       -5.941  -6.518   0.010  0.00  0.00    -0.060 Cl
ATOM      7  C   LIG    1       -4.187  -4.456   0.018  0.00  0.00    -0.010 A 
ENDROOT
BRANCH   1   8
ATOM      8  O   LIG    1       -2.753  -2.558   0.015  0.00  0.00    -0.310 OA
BRANCH   8   9
ATOM      9  C   LIG    1       -1.413  -2.063   0.004  0.00  0.00    +0.180 C 
BRANCH   9  10
ATOM     10  C   LIG    1       -1.433  -0.534   0.013  0.00  0.00    +0.040 C 
BRANCH  10  12
ATOM     11  C   LIG    1       -0.019   1.526   0.010  0.00  0.00    +0.030 C 
ATOM     12  C   LIG    1        0.002  -0.004   0.002  0.00  0.00    +0.020 C 
ENDBRANCH  10  12
ENDBRANCH   9  10
ENDBRANCH   8   9
ENDBRANCH   1   8
TORSDOF 4
ENDMDL
MODEL      555
REMARK  Name = ZINC000001699277
REMARK                            x       y       z     vdW  Elec       q    Type
REMARK                         _______ _______ _______ _____ _____    ______ ____
ROOT
ATOM      1  C   LIG    1        0.718  -0.497  -1.257  0.00  0.00    +0.000 C 
ATOM      2  C   LIG    1       -0.022   0.009  -2.496  0.00  0.00    +0.000 C 
ATOM      3  C   LIG    1        0.694  -0.484  -3.755  0.00  0.00    +0.000 C 
ATOM      4  C   LIG    1        2.130   0.045  -3.766  0.00  0.00    +0.000 C 
ATOM      5  C   LIG    1        2.870  -0.461  -2.526  0.00  0.00    +0.000 C 
ATOM      6  C   LIG    1        2.154   0.032  -1.268  0.00  0.00    +0.000 C 
ENDROOT
BRANCH   1   8
ATOM      7  C   LIG    1       -0.019   1.526   0.010  0.00  0.00    +0.020 C 
ATOM      8  C   LIG    1        0.002  -0.004   0.002  0.00  0.00    -0.070 C 
ATOM      9  C   LIG    1       -1.433  -0.534   0.013  0.00  0.00    +0.020 C 
ATOM     10  C   LIG    1        0.742  -0.511   1.242  0.00  0.00    +0.020 C 
ENDBRANCH   1   8
TORSDOF 1
ENDMDL
MODEL      556
REMARK  Name = ZINC000057988182
REMARK                            x       y       z     vdW  Elec       q    Type
REMARK                         _______ _______ _______ _____ _____    ______ ____
ROOT
ATOM      1  C   LIG    1        0.707  -0.490  -1.238  0.00  0.00    -0.110 C 
ATOM      2  C   LIG    1        1.169   0.396  -2.061  0.00  0.00    -0.060 C 
ATOM      3  C   LIG    1        1.883   0.067  -3.339  0.00  0.00    +0.050 C 
ATOM      4  C   LIG    1        2.354  -1.389  -3.318  0.00  0.00    +0.000 C 
ATOM      5  C   LIG    1        1.174  -2.276  -2.902  0.00  0.00    +0.000 C 
ATOM      6  C   LIG    1        0.837  -1.972  -1.439  0.00  0.00    +0.060 C 
ENDROOT
BRANCH   1   8
ATOM      7  C   LIG    1       -0.019   1.526   0.010  0.00  0.00    +0.030 C 
ATOM      8  C   LIG    1        0.002  -0.004   0.002  0.00  0.00    -0.040 C 
ATOM      9  C   LIG    1       -1.433  -0.534   0.013  0.00  0.00    +0.030 C 
ATOM     10  C   LIG    1        0.742  -0.511   1.242  0.00  0.00    +0.030 C 
ENDBRANCH   1   8
TORSDOF 1
ENDMDL
MODEL      557
REMARK  Name = ZINC000669380232
REMARK                            x       y       z     vdW  Elec       q    Type
REMARK                         _______ _______ _______ _____ _____    ______ ____
ROOT
ATOM      1  F   LIG    1        0.002  -0.004   0.002  0.00  0.00    -0.130 F 
ATOM      2  C   LIG    1       -0.016   1.347   0.009  0.00  0.00    +0.110 A 
ATOM      3  C   LIG    1       -1.224   2.023   0.030  0.00  0.00    +0.010 A 
ATOM      4  C   LIG    1       -1.242   3.405   0.038  0.00  0.00    +0.050 A 
ATOM      5  C   LIG    1       -0.054   4.112   0.024  0.00  0.00    -0.040 A 
ATOM      6  C   LIG    1        1.154   3.437   0.004  0.00  0.00    +0.060 A 
ATOM      7 CL   LIG    1       -0.077   5.848   0.033  0.00  0.00    -0.060 Cl
ATOM      8  C   LIG    1        1.173   2.056   0.002  0.00  0.00    -0.090 A 
ENDROOT
BRANCH   8   9
ATOM      9  C   LIG    1        2.489   1.321  -0.020  0.00  0.00    +0.030 C 
ATOM     10  C   LIG    1        3.558   1.997  -0.895  0.00  0.00    +0.030 C 
ATOM     11  C   LIG    1        4.572   1.634   0.202  0.00  0.00    +0.010 C 
ATOM     12  C   LIG    1        3.390   1.634   1.186  0.00  0.00    +0.020 C 
ENDBRANCH   8   9
TORSDOF 1
ENDMDL
MODEL      558
REMARK  Name = ZINC000060159487
REMARK                            x       y       z     vdW  Elec       q    Type
REMARK                         _______ _______ _______ _____ _____    ______ ____
ROOT
ATOM      1  C   LIG    1       -0.018   1.503   0.010  0.00  0.00    +0.090 C 
ATOM      2  C   LIG    1        0.002  -0.004   0.002  0.00  0.00    -0.090 A 
ATOM      3  C   LIG    1        0.006  -0.688  -1.200  0.00  0.00    +0.000 A 
ATOM      4  C   LIG    1        0.025  -2.071  -1.215  0.00  0.00    +0.010 A 
ATOM      5  C   LIG    1        0.040  -2.776  -0.029  0.00  0.00    -0.080 A 
ATOM      6  C   LIG    1        0.036  -2.093   1.185  0.00  0.00    -0.040 A 
ATOM      7  C   LIG    1        0.061  -4.283  -0.048  0.00  0.00    +0.090 C 
ATOM      8  C   LIG    1        0.023  -0.699   1.194  0.00  0.00    +0.020 A 
ENDROOT
BRANCH   6   9
ATOM      9  C   LIG    1        0.053  -2.845   2.463  0.00  0.00    -0.070 A 
ATOM     10  C   LIG    1       -1.038  -2.782   3.327  0.00  0.00    +0.040 A 
ATOM     11  C   LIG    1       -1.018  -3.484   4.515  0.00  0.00    +0.000 A 
ATOM     12  C   LIG    1        0.083  -4.253   4.851  0.00  0.00    +0.030 A 
ATOM     13  C   LIG    1        1.171  -4.322   4.002  0.00  0.00    -0.020 A 
ATOM     14  C   LIG    1        1.162  -3.627   2.804  0.00  0.00    +0.120 A 
BRANCH  14  15
ATOM     15  O   LIG    1        2.230  -3.695   1.967  0.00  0.00    -0.490 OA
ATOM     16  H   LIG    1        2.179  -4.414   1.322  0.00  0.00    +0.380 HD
ENDBRANCH  14  15
ENDBRANCH   6   9
TORSDOF 2
ENDMDL
MODEL      559
REMARK  Name = ZINC000169829358
REMARK                            x       y       z     vdW  Elec       q    Type
REMARK                         _______ _______ _______ _____ _____    ______ ____
ROOT
ATOM      1  C   LIG    1       -1.297  -0.714  -0.126  0.00  0.00    +0.030 C 
ATOM      2  C   LIG    1       -2.083  -0.420  -1.383  0.00  0.00    -0.400 C 
ATOM      3  C   LIG    1       -2.808  -1.447  -1.735  0.00  0.00    -0.010 C 
ATOM      4  C   LIG    1       -2.626  -2.597  -0.771  0.00  0.00    +0.040 C 
ATOM      5  C   LIG    1       -1.338  -2.254   0.015  0.00  0.00    -0.010 C 
ATOM      6  C   LIG    1       -1.462  -2.672   1.482  0.00  0.00    +0.010 C 
ENDROOT
BRANCH   2   7
ATOM      7 SI   LIG    1       -2.024   1.199  -2.311  0.00  0.00    +1.050 Si
ATOM      8  C   LIG    1       -1.835   2.603  -1.101  0.00  0.00    -0.240 C 
ATOM      9  C   LIG    1       -3.603   1.420  -3.276  0.00  0.00    -0.240 C 
ATOM     10  C   LIG    1       -0.576   1.191  -3.483  0.00  0.00    -0.240 C 
ENDBRANCH   2   7
BRANCH   1  12
ATOM     11  C   LIG    1        0.918  -0.522   1.014  0.00  0.00    +0.000 C 
ATOM     12  C   LIG    1        0.147  -0.231  -0.275  0.00  0.00    +0.010 C 
ENDBRANCH   1  12
TORSDOF 2
ENDMDL
MODEL      560
REMARK  Name = ZINC000169828536
REMARK                            x       y       z     vdW  Elec       q    Type
REMARK                         _______ _______ _______ _____ _____    ______ ____
ROOT
ATOM      1  C   LIG    1       -0.018   1.503   0.010  0.00  0.00    +0.070 C 
ATOM      2  C   LIG    1        0.002  -0.004   0.002  0.00  0.00    -0.130 C 
ATOM      3  C   LIG    1        0.005  -0.660  -1.153  0.00  0.00    -0.010 C 
ATOM      4  C   LIG    1        0.023  -2.132  -1.158  0.00  0.00    -0.380 C 
ATOM      5  C   LIG    1       -0.347  -2.799  -0.070  0.00  0.00    +0.000 C 
ATOM      6  C   LIG    1       -0.785  -2.054   1.163  0.00  0.00    +0.040 C 
ATOM      7  C   LIG    1        0.025  -0.762   1.303  0.00  0.00    +0.060 C 
ENDROOT
BRANCH   4   8
ATOM      8 SI   LIG    1        0.564  -3.058  -2.687  0.00  0.00    +1.050 Si
ATOM      9  C   LIG    1       -0.829  -4.144  -3.280  0.00  0.00    -0.240 C 
ATOM     10  C   LIG    1        2.045  -4.113  -2.283  0.00  0.00    -0.240 C 
ATOM     11  C   LIG    1        1.015  -1.841  -4.023  0.00  0.00    -0.240 C 
ENDBRANCH   4   8
TORSDOF 1
ENDMDL
MODEL      561
REMARK  Name = ZINC000060309880
REMARK                            x       y       z     vdW  Elec       q    Type
REMARK                         _______ _______ _______ _____ _____    ______ ____
ROOT
ATOM      1  C   LIG    1        2.837  -0.352  -2.325  0.00  0.00    +0.150 A 
ATOM      2  C   LIG    1        2.319  -1.149  -3.335  0.00  0.00    -0.080 A 
ATOM      3  C   LIG    1        3.112  -1.502  -4.410  0.00  0.00    +0.070 A 
ATOM      4  C   LIG    1        4.421  -1.063  -4.480  0.00  0.00    -0.010 A 
ATOM      5  C   LIG    1        4.941  -0.268  -3.473  0.00  0.00    +0.000 A 
ATOM      6 CL   LIG    1        6.584   0.283  -3.564  0.00  0.00    -0.060 Cl
ATOM      7  C   LIG    1        4.149   0.094  -2.399  0.00  0.00    -0.010 A 
ENDROOT
BRANCH   1   8
ATOM      8  O   LIG    1        2.059  -0.003  -1.267  0.00  0.00    -0.300 OA
BRANCH   8   9
ATOM      9  C   LIG    1        0.718  -0.497  -1.257  0.00  0.00    +0.190 C 
BRANCH   9  11
ATOM     10  C   LIG    1       -0.019   1.526   0.010  0.00  0.00    +0.030 C 
ATOM     11  C   LIG    1        0.002  -0.004   0.002  0.00  0.00    -0.070 C 
ATOM     12  C   LIG    1       -1.433  -0.534   0.013  0.00  0.00    +0.050 C 
ATOM     13  C   LIG    1        0.742  -0.511   1.242  0.00  0.00    +0.030 C 
ENDBRANCH   9  11
ENDBRANCH   8   9
ENDBRANCH   1   8
TORSDOF 3
ENDMDL
MODEL      562
REMARK  Name = ZINC000007277028
REMARK                            x       y       z     vdW  Elec       q    Type
REMARK                         _______ _______ _______ _____ _____    ______ ____
ROOT
ATOM      1  N   LIG    1        1.471  -2.526   2.420  0.00  0.00    -0.750 N 
ATOM      2  H   LIG    1        1.520  -1.974   3.216  0.00  0.00    +0.400 HD
ENDROOT
BRANCH   1   8
ATOM      3  C   LIG    1       -0.019   1.526   0.010  0.00  0.00    +0.020 C 
ATOM      4  C   LIG    1        0.002  -0.004   0.002  0.00  0.00    -0.020 C 
ATOM      5  C   LIG    1       -1.433  -0.534   0.013  0.00  0.00    +0.000 C 
ATOM      6  C   LIG    1       -1.413  -2.063   0.004  0.00  0.00    +0.010 C 
ATOM      7  C   LIG    1       -0.673  -2.570   1.244  0.00  0.00    +0.000 C 
ATOM      8  C   LIG    1        0.763  -2.041   1.233  0.00  0.00    +0.230 C 
ATOM      9  C   LIG    1        0.742  -0.511   1.242  0.00  0.00    +0.020 C 
ENDBRANCH   1   8
BRANCH   1  10
ATOM     10  C   LIG    1        2.078  -3.784   2.406  0.00  0.00    +0.220 A 
ATOM     11  C   LIG    1        2.015  -4.574   1.265  0.00  0.00    -0.080 A 
ATOM     12  C   LIG    1        2.616  -5.818   1.254  0.00  0.00    +0.050 A 
ATOM     13  C   LIG    1        3.279  -6.277   2.377  0.00  0.00    -0.060 A 
ATOM     14  C   LIG    1        3.344  -5.493   3.514  0.00  0.00    +0.050 A 
ATOM     15  C   LIG    1        2.750  -4.246   3.530  0.00  0.00    -0.080 A 
ENDBRANCH   1  10
TORSDOF 2
ENDMDL
MODEL      563
REMARK  Name = ZINC000007277022
REMARK                            x       y       z     vdW  Elec       q    Type
REMARK                         _______ _______ _______ _____ _____    ______ ____
ROOT
ATOM      1  N   LIG    1        2.116  -0.004   1.231  0.00  0.00    -0.740 N 
ATOM      2  H   LIG    1        2.538   0.237   0.392  0.00  0.00    +0.400 HD
ENDROOT
BRANCH   1   9
ATOM      3  C   LIG    1       -0.019   1.526   0.010  0.00  0.00    +0.030 C 
ATOM      4  C   LIG    1        0.002  -0.004   0.002  0.00  0.00    -0.030 C 
ATOM      5  C   LIG    1       -1.433  -0.534   0.013  0.00  0.00    +0.020 C 
ATOM      6  C   LIG    1       -1.413  -2.063   0.004  0.00  0.00    +0.000 C 
ATOM      7  C   LIG    1       -0.673  -2.570   1.244  0.00  0.00    +0.000 C 
ATOM      8  C   LIG    1        0.763  -2.041   1.233  0.00  0.00    -0.010 C 
ATOM      9  C   LIG    1        0.742  -0.511   1.242  0.00  0.00    +0.240 C 
ENDBRANCH   1   9
BRANCH   1  10
ATOM     10  C   LIG    1        2.820   0.133   2.430  0.00  0.00    +0.220 A 
ATOM     11  C   LIG    1        2.219  -0.218   3.633  0.00  0.00    -0.080 A 
ATOM     12  C   LIG    1        2.918  -0.082   4.817  0.00  0.00    +0.050 A 
ATOM     13  C   LIG    1        4.213   0.402   4.806  0.00  0.00    -0.060 A 
ATOM     14  C   LIG    1        4.814   0.752   3.610  0.00  0.00    +0.050 A 
ATOM     15  C   LIG    1        4.123   0.613   2.422  0.00  0.00    -0.080 A 
ENDBRANCH   1  10
TORSDOF 2
ENDMDL
MODEL      564
REMARK  Name = ZINC000061116872
REMARK                            x       y       z     vdW  Elec       q    Type
REMARK                         _______ _______ _______ _____ _____    ______ ____
ROOT
ATOM      1  C   LIG    1       -0.018   1.503   0.010  0.00  0.00    +0.100 C 
ATOM      2  C   LIG    1        0.002  -0.004   0.002  0.00  0.00    -0.070 A 
ATOM      3  C   LIG    1        0.006  -0.688  -1.198  0.00  0.00    -0.040 A 
ATOM      4  C   LIG    1        0.025  -2.076  -1.205  0.00  0.00    +0.210 A 
ATOM      5  C   LIG    1        0.040  -2.775  -0.005  0.00  0.00    -0.050 A 
ATOM      6  C   LIG    1        0.036  -2.087   1.193  0.00  0.00    +0.030 A 
ATOM      7  C   LIG    1        0.023  -0.702   1.198  0.00  0.00    +0.030 A 
ATOM      8  F   LIG    1        0.020  -0.032   2.371  0.00  0.00    -0.140 F 
ENDROOT
BRANCH   4   9
ATOM      9  N   LIG    1        0.029  -2.770  -2.419  0.00  0.00    -0.740 N 
ATOM     10  H   LIG    1        0.018  -2.282  -3.257  0.00  0.00    +0.400 HD
BRANCH   9  11
ATOM     11  C   LIG    1        0.049  -4.235  -2.425  0.00  0.00    +0.250 C 
BRANCH  11  12
ATOM     12  C   LIG    1        0.049  -4.739  -3.870  0.00  0.00    -0.080 C 
ATOM     13  C   LIG    1       -1.210  -4.243  -4.583  0.00  0.00    +0.030 C 
ATOM     14  C   LIG    1        0.070  -6.269  -3.876  0.00  0.00    +0.040 C 
ATOM     15  C   LIG    1        1.288  -4.209  -4.594  0.00  0.00    +0.030 C 
ENDBRANCH  11  12
ENDBRANCH   9  11
ENDBRANCH   4   9
TORSDOF 3
ENDMDL
MODEL      565
REMARK  Name = ZINC000061117542
REMARK                            x       y       z     vdW  Elec       q    Type
REMARK                         _______ _______ _______ _____ _____    ______ ____
ROOT
ATOM      1  C   LIG    1       -0.018   1.503   0.010  0.00  0.00    +0.100 C 
ATOM      2  C   LIG    1        0.002  -0.004   0.002  0.00  0.00    -0.070 A 
ATOM      3  C   LIG    1        0.006  -0.688  -1.198  0.00  0.00    -0.040 A 
ATOM      4  C   LIG    1        0.025  -2.076  -1.205  0.00  0.00    +0.220 A 
ATOM      5  C   LIG    1        0.040  -2.775  -0.005  0.00  0.00    -0.050 A 
ATOM      6  C   LIG    1        0.036  -2.087   1.193  0.00  0.00    +0.030 A 
ATOM      7  C   LIG    1        0.023  -0.702   1.198  0.00  0.00    +0.030 A 
ATOM      8  F   LIG    1        0.020  -0.032   2.371  0.00  0.00    -0.150 F 
ENDROOT
BRANCH   4   9
ATOM      9  N   LIG    1        0.029  -2.770  -2.419  0.00  0.00    -0.740 N 
ATOM     10  H   LIG    1        0.018  -2.282  -3.257  0.00  0.00    +0.400 HD
BRANCH   9  11
ATOM     11  C   LIG    1        0.049  -4.235  -2.425  0.00  0.00    +0.230 C 
ATOM     12  C   LIG    1       -1.381  -4.765  -2.295  0.00  0.00    +0.020 C 
BRANCH  11  13
ATOM     13  C   LIG    1        0.659  -4.731  -3.737  0.00  0.00    -0.030 C 
ATOM     14  C   LIG    1        0.680  -6.261  -3.744  0.00  0.00    +0.030 C 
ATOM     15  C   LIG    1        2.089  -4.201  -3.867  0.00  0.00    +0.030 C 
ENDBRANCH  11  13
ENDBRANCH   9  11
ENDBRANCH   4   9
TORSDOF 3
ENDMDL
MODEL      566
REMARK  Name = ZINC000061117598
REMARK                            x       y       z     vdW  Elec       q    Type
REMARK                         _______ _______ _______ _____ _____    ______ ____
ROOT
ATOM      1  C   LIG    1        3.128   0.392   1.955  0.00  0.00    +0.220 A 
ATOM      2  C   LIG    1        2.711   0.167   3.260  0.00  0.00    -0.050 A 
ATOM      3  C   LIG    1        3.597   0.338   4.306  0.00  0.00    +0.030 A 
ATOM      4  C   LIG    1        4.900   0.733   4.054  0.00  0.00    +0.030 A 
ATOM      5  C   LIG    1        5.318   0.957   2.753  0.00  0.00    -0.070 A 
ATOM      6  C   LIG    1        6.737   1.386   2.481  0.00  0.00    +0.100 C 
ATOM      7  F   LIG    1        5.764   0.899   5.079  0.00  0.00    -0.150 F 
ATOM      8  C   LIG    1        4.437   0.782   1.704  0.00  0.00    -0.040 A 
ENDROOT
BRANCH   1   9
ATOM      9  N   LIG    1        2.233   0.219   0.894  0.00  0.00    -0.740 N 
ATOM     10  H   LIG    1        2.549   0.274  -0.021  0.00  0.00    +0.400 HD
BRANCH   9  11
ATOM     11  C   LIG    1        0.818  -0.044   1.166  0.00  0.00    +0.230 C 
BRANCH  11  13
ATOM     12  C   LIG    1        0.215   2.369   0.929  0.00  0.00    +0.010 C 
ATOM     13  C   LIG    1       -0.044   0.958   0.396  0.00  0.00    -0.010 C 
ENDBRANCH  11  13
BRANCH  11  14
ATOM     14  C   LIG    1        0.469  -1.465   0.720  0.00  0.00    -0.010 C 
ATOM     15  C   LIG    1        1.228  -2.473   1.586  0.00  0.00    +0.010 C 
ENDBRANCH  11  14
ENDBRANCH   9  11
ENDBRANCH   1   9
TORSDOF 4
ENDMDL
MODEL      567
REMARK  Name = ZINC000007277014
REMARK                            x       y       z     vdW  Elec       q    Type
REMARK                         _______ _______ _______ _____ _____    ______ ____
ROOT
ATOM      1  N   LIG    1        0.056  -0.038   2.447  0.00  0.00    -0.740 N 
ATOM      2  H   LIG    1       -0.888   0.180   2.413  0.00  0.00    +0.400 HD
ENDROOT
BRANCH   1   9
ATOM      3  C   LIG    1       -0.019   1.526   0.010  0.00  0.00    +0.030 C 
ATOM      4  C   LIG    1        0.002  -0.004   0.002  0.00  0.00    -0.020 C 
ATOM      5  C   LIG    1       -1.433  -0.534   0.013  0.00  0.00    +0.020 C 
ATOM      6  C   LIG    1       -1.413  -2.063   0.004  0.00  0.00    +0.000 C 
ATOM      7  C   LIG    1       -0.673  -2.570   1.244  0.00  0.00    +0.000 C 
ATOM      8  C   LIG    1        0.763  -2.041   1.233  0.00  0.00    +0.000 C 
ATOM      9  C   LIG    1        0.742  -0.511   1.242  0.00  0.00    +0.240 C 
ENDBRANCH   1   9
BRANCH   1  10
ATOM     10  C   LIG    1        0.763   0.098   3.644  0.00  0.00    +0.220 A 
ATOM     11  C   LIG    1        2.117  -0.208   3.692  0.00  0.00    -0.080 A 
ATOM     12  C   LIG    1        2.812  -0.072   4.878  0.00  0.00    +0.050 A 
ATOM     13  C   LIG    1        2.162   0.369   6.016  0.00  0.00    -0.060 A 
ATOM     14  C   LIG    1        0.814   0.674   5.971  0.00  0.00    +0.050 A 
ATOM     15  C   LIG    1        0.114   0.546   4.788  0.00  0.00    -0.080 A 
ENDBRANCH   1  10
TORSDOF 2
ENDMDL
MODEL      568
REMARK  Name = ZINC000200127984
REMARK                            x       y       z     vdW  Elec       q    Type
REMARK                         _______ _______ _______ _____ _____    ______ ____
ROOT
ATOM      1  C   LIG    1        2.630  -0.566  -2.552  0.00  0.00    -0.080 A 
ATOM      2  C   LIG    1        1.872  -1.353  -3.397  0.00  0.00    +0.050 A 
ATOM      3  C   LIG    1        2.426  -1.850  -4.562  0.00  0.00    +0.010 A 
ATOM      4  C   LIG    1        3.740  -1.561  -4.882  0.00  0.00    +0.020 A 
ATOM      5  C   LIG    1        4.499  -0.773  -4.037  0.00  0.00    +0.030 A 
ATOM      6  C   LIG    1        3.943  -0.271  -2.874  0.00  0.00    -0.030 A 
ATOM      7 CL   LIG    1        4.897   0.719  -1.813  0.00  0.00    -0.070 Cl
ENDROOT
BRANCH   1   8
ATOM      8  C   LIG    1        2.026  -0.024  -1.282  0.00  0.00    +0.240 C 
BRANCH   8   9
ATOM      9  O   LIG    1        0.671  -0.465  -1.174  0.00  0.00    -0.370 OA
BRANCH   9  11
ATOM     10  C   LIG    1       -0.019   1.526   0.010  0.00  0.00    +0.020 C 
ATOM     11  C   LIG    1        0.002  -0.004   0.002  0.00  0.00    +0.110 C 
ATOM     12  C   LIG    1       -1.433  -0.534   0.013  0.00  0.00    +0.050 C 
ATOM     13  C   LIG    1        0.742  -0.511   1.242  0.00  0.00    +0.020 C 
ENDBRANCH   9  11
ENDBRANCH   8   9
ENDBRANCH   1   8
TORSDOF 3
ENDMDL
MODEL      569
REMARK  Name = ZINC000000139347
REMARK                            x       y       z     vdW  Elec       q    Type
REMARK                         _______ _______ _______ _____ _____    ______ ____
ROOT
ATOM      1  O   LIG    1        0.002  -0.004   0.002  0.00  0.00    -0.450 OA
ATOM      2  C   LIG    1       -0.014   1.210   0.009  0.00  0.00    +0.430 C 
ENDROOT
BRANCH   2   3
ATOM      3  C   LIG    1       -1.330   1.946   0.019  0.00  0.00    -0.040 C 
ATOM      4  C   LIG    1       -1.782   2.203  -1.420  0.00  0.00    +0.030 C 
ATOM      5  C   LIG    1       -3.117   2.950  -1.410  0.00  0.00    +0.020 C 
ATOM      6  C   LIG    1       -4.168   2.104  -0.688  0.00  0.00    +0.000 C 
ATOM      7  C   LIG    1       -3.716   1.848   0.751  0.00  0.00    +0.010 C 
ATOM      8  C   LIG    1       -2.381   1.101   0.741  0.00  0.00    +0.030 C 
ENDBRANCH   2   3
BRANCH   2   9
ATOM      9  C   LIG    1        1.199   1.933   0.001  0.00  0.00    -0.310 A 
ATOM     10  C   LIG    1        2.455   1.381  -0.019  0.00  0.00    +0.110 A 
ATOM     11  C   LIG    1        3.458   2.317  -0.022  0.00  0.00    -0.010 A 
ATOM     12  C   LIG    1        3.047   3.592  -0.005  0.00  0.00    -0.050 A 
ATOM     13  S   LIG    1        1.343   3.685   0.008  0.00  0.00    +0.230 S 
ENDBRANCH   2   9
TORSDOF 2
ENDMDL
MODEL      570
REMARK  Name = ZINC000034327720
REMARK                            x       y       z     vdW  Elec       q    Type
REMARK                         _______ _______ _______ _____ _____    ______ ____
ROOT
ATOM      1  O   LIG    1        0.002  -0.004   0.002  0.00  0.00    -0.450 OA
ATOM      2  C   LIG    1       -0.014   1.209   0.009  0.00  0.00    +0.420 C 
ENDROOT
BRANCH   2   3
ATOM      3  C   LIG    1       -1.330   1.945   0.019  0.00  0.00    -0.040 C 
ATOM      4  C   LIG    1       -1.782   2.202  -1.420  0.00  0.00    +0.030 C 
ATOM      5  C   LIG    1       -3.117   2.949  -1.410  0.00  0.00    +0.010 C 
ATOM      6  C   LIG    1       -4.168   2.104  -0.688  0.00  0.00    +0.000 C 
ATOM      7  C   LIG    1       -3.716   1.847   0.751  0.00  0.00    +0.010 C 
ATOM      8  C   LIG    1       -2.381   1.100   0.741  0.00  0.00    +0.020 C 
ENDBRANCH   2   3
BRANCH   2   9
ATOM      9  C   LIG    1        1.243   1.958   0.001  0.00  0.00    -0.190 A 
ATOM     10  C   LIG    1        1.309   3.322   0.013  0.00  0.00    -0.030 A 
ATOM     11  S   LIG    1        2.929   3.849  -0.001  0.00  0.00    +0.190 S 
ATOM     12  C   LIG    1        3.544   2.205  -0.025  0.00  0.00    -0.070 A 
ATOM     13  C   LIG    1        2.546   1.331  -0.015  0.00  0.00    +0.060 A 
ENDBRANCH   2   9
TORSDOF 2
ENDMDL
MODEL      571
REMARK  Name = ZINC000032153624
REMARK                            x       y       z     vdW  Elec       q    Type
REMARK                         _______ _______ _______ _____ _____    ______ ____
ROOT
ATOM      1  C   LIG    1        1.911  -0.214  -1.547  0.00  0.00    +0.230 A 
ATOM      2  C   LIG    1        2.671   0.572  -0.691  0.00  0.00    -0.050 A 
ATOM      3  C   LIG    1        3.997   0.826  -0.984  0.00  0.00    +0.070 A 
ATOM      4  C   LIG    1        4.567   0.299  -2.130  0.00  0.00    -0.090 A 
ATOM      5  C   LIG    1        3.811  -0.484  -2.984  0.00  0.00    +0.070 A 
ATOM      6 CL   LIG    1        6.233   0.621  -2.495  0.00  0.00    -0.080 Cl
ATOM      7  C   LIG    1        2.487  -0.747  -2.693  0.00  0.00    -0.060 A 
ENDROOT
BRANCH   1   8
ATOM      8  N   LIG    1        0.569  -0.474  -1.253  0.00  0.00    -0.740 N 
ATOM      9  H   LIG    1        0.012  -0.936  -1.898  0.00  0.00    +0.400 HD
BRANCH   8  11
ATOM     10  C   LIG    1       -0.008   1.482   0.098  0.00  0.00    +0.020 C 
ATOM     11  C   LIG    1        0.005  -0.046   0.030  0.00  0.00    +0.170 C 
ATOM     12  C   LIG    1       -1.426  -0.574   0.159  0.00  0.00    +0.040 C 
ATOM     13  C   LIG    1        0.858  -0.601   1.172  0.00  0.00    +0.020 C 
ENDBRANCH   8  11
ENDBRANCH   1   8
TORSDOF 2
ENDMDL
MODEL      572
REMARK  Name = ZINC000012656709
REMARK                            x       y       z     vdW  Elec       q    Type
REMARK                         _______ _______ _______ _____ _____    ______ ____
ROOT
ATOM      1  C   LIG    1       -0.112   1.466   0.054  0.00  0.00    +0.040 C 
ATOM      2  C   LIG    1       -0.127  -0.064   0.054  0.00  0.00    +0.140 C 
ATOM      3  C   LIG    1       -1.575  -0.561   0.041  0.00  0.00    -0.010 C 
ATOM      4  C   LIG    1       -1.554  -2.093   0.028  0.00  0.00    +0.010 C 
ATOM      5  C   LIG    1       -0.798  -2.633   1.248  0.00  0.00    -0.010 C 
ATOM      6  C   LIG    1       -0.748  -4.155   1.165  0.00  0.00    -0.050 C 
ATOM      7  C   LIG    1        0.248  -4.634   0.113  0.00  0.00    +0.010 C 
ATOM      8  C   LIG    1        1.625  -4.013   0.328  0.00  0.00    +0.010 C 
ATOM      9  C   LIG    1        1.511  -2.492   0.261  0.00  0.00    -0.010 C 
ATOM     10  C   LIG    1       -2.138  -4.692   0.757  0.00  0.00    +0.020 C 
ATOM     11  C   LIG    1       -0.430  -4.795   2.519  0.00  0.00    +0.030 C 
ATOM     12  C   LIG    1        0.573  -1.983   1.355  0.00  0.00    +0.130 C 
ATOM     13  C   LIG    1        1.214  -2.236   2.730  0.00  0.00    +0.050 C 
ATOM     14  O   LIG    1        0.484  -0.554   1.242  0.00  0.00    -0.380 OA
ENDROOT
TORSDOF 0
ENDMDL
MODEL      573
REMARK  Name = ZINC000204392896
REMARK                            x       y       z     vdW  Elec       q    Type
REMARK                         _______ _______ _______ _____ _____    ______ ____
ROOT
ATOM      1 CL   LIG    1        0.002  -0.004   0.002  0.00  0.00    -0.070 Cl
ATOM      2  C   LIG    1       -0.021   1.732   0.012  0.00  0.00    -0.040 A 
ATOM      3  C   LIG    1       -1.230   2.406   0.033  0.00  0.00    +0.050 A 
ATOM      4  C   LIG    1       -1.252   3.787   0.040  0.00  0.00    +0.050 A 
ATOM      5  C   LIG    1       -0.059   4.499   0.026  0.00  0.00    -0.080 A 
ATOM      6  C   LIG    1        1.153   3.819   0.006  0.00  0.00    +0.010 A 
ATOM      7  C   LIG    1        1.168   2.439   0.004  0.00  0.00    +0.050 A 
ENDROOT
BRANCH   5   8
ATOM      8  S   LIG    1       -0.083   6.261   0.036  0.00  0.00    -0.100 S 
BRANCH   8   9
ATOM      9  C   LIG    1        1.679   6.693   0.013  0.00  0.00    +0.100 C 
BRANCH   9  10
ATOM     10  C   LIG    1        1.831   8.216   0.019  0.00  0.00    -0.030 C 
ATOM     11  C   LIG    1        2.518   8.852   1.228  0.00  0.00    +0.030 C 
ATOM     12  C   LIG    1        3.244   8.785  -0.117  0.00  0.00    +0.030 C 
ENDBRANCH   9  10
ENDBRANCH   8   9
ENDBRANCH   5   8
TORSDOF 3
ENDMDL
MODEL      574
REMARK  Name = ZINC000003860296
REMARK                            x       y       z     vdW  Elec       q    Type
REMARK                         _______ _______ _______ _____ _____    ______ ____
ROOT
ATOM      1  O   LIG    1        0.002  -0.004   0.002  0.00  0.00    -0.460 OA
ATOM      2  C   LIG    1       -0.014   1.203   0.009  0.00  0.00    +0.360 C 
ATOM      3  C   LIG    1       -1.329   1.939   0.032  0.00  0.00    +0.020 C 
ATOM      4  C   LIG    1       -2.190   1.409   1.180  0.00  0.00    +0.030 C 
ATOM      5  C   LIG    1       -2.512   2.552   2.145  0.00  0.00    +0.010 C 
ATOM      6  C   LIG    1       -2.166   2.125   3.573  0.00  0.00    +0.000 C 
ATOM      7  C   LIG    1       -1.258   3.177   4.214  0.00  0.00    +0.010 C 
ATOM      8  C   LIG    1        0.008   2.503   4.746  0.00  0.00    +0.000 C 
ATOM      9  C   LIG    1        1.240   3.227   4.198  0.00  0.00    +0.010 C 
ATOM     10  C   LIG    1        2.171   2.214   3.530  0.00  0.00    +0.000 C 
ATOM     11  C   LIG    1        2.456   2.654   2.092  0.00  0.00    +0.010 C 
ATOM     12  C   LIG    1        2.175   1.491   1.138  0.00  0.00    +0.030 C 
ATOM     13  C   LIG    1        1.280   1.975   0.000  0.00  0.00    +0.020 C 
ENDROOT
TORSDOF 0
ENDMDL
MODEL      575
REMARK  Name = ZINC000002525320
REMARK                            x       y       z     vdW  Elec       q    Type
REMARK                         _______ _______ _______ _____ _____    ______ ____
ROOT
ATOM      1  C   LIG    1        1.949   0.537  -1.298  0.00  0.00    +0.140 A 
ATOM      2  C   LIG    1        2.379   1.304  -0.225  0.00  0.00    -0.050 A 
ATOM      3  C   LIG    1        3.603   1.942  -0.280  0.00  0.00    +0.070 A 
ATOM      4  C   LIG    1        4.399   1.818  -1.405  0.00  0.00    -0.070 A 
ATOM      5  C   LIG    1        3.971   1.053  -2.476  0.00  0.00    +0.070 A 
ATOM      6 CL   LIG    1        5.936   2.621  -1.472  0.00  0.00    -0.070 Cl
ATOM      7  C   LIG    1        2.751   0.409  -2.422  0.00  0.00    +0.000 A 
ENDROOT
BRANCH   1   8
ATOM      8  O   LIG    1        0.745  -0.092  -1.245  0.00  0.00    -0.300 OA
BRANCH   8  10
ATOM      9  C   LIG    1       -0.351   1.449   0.260  0.00  0.00    +0.020 C 
ATOM     10  C   LIG    1        0.023  -0.009  -0.015  0.00  0.00    +0.110 C 
ATOM     11  C   LIG    1       -1.250  -0.852  -0.113  0.00  0.00    +0.080 C 
ATOM     12  C   LIG    1        0.897  -0.535   1.125  0.00  0.00    +0.020 C 
ENDBRANCH   8  10
ENDBRANCH   1   8
TORSDOF 2
ENDMDL
MODEL      576
REMARK  Name = ZINC000016946102
REMARK                            x       y       z     vdW  Elec       q    Type
REMARK                         _______ _______ _______ _____ _____    ______ ____
ROOT
ATOM      1  C   LIG    1       -0.017   1.364   0.009  0.00  0.00    +0.220 A 
ATOM      2  C   LIG    1        1.239   1.839   0.000  0.00  0.00    -0.050 A 
ATOM      3  C   LIG    1        2.135   0.680  -0.015  0.00  0.00    -0.110 A 
ATOM      4  C   LIG    1        3.521   0.528  -0.029  0.00  0.00    +0.070 A 
ATOM      5  C   LIG    1        4.067  -0.748  -0.041  0.00  0.00    -0.080 A 
ATOM      6  C   LIG    1        3.230  -1.869  -0.039  0.00  0.00    +0.040 A 
ATOM      7  C   LIG    1        1.873  -1.725  -0.026  0.00  0.00    -0.010 A 
ATOM      8  C   LIG    1        1.303  -0.455  -0.013  0.00  0.00    +0.100 A 
ATOM      9  N   LIG    1        0.002  -0.004   0.002  0.00  0.00    -0.600 N 
ATOM     10  H   LIG    1       -0.784  -0.572   0.006  0.00  0.00    +0.420 HD
ENDROOT
BRANCH   5  11
ATOM     11  C   LIG    1        5.540  -0.924  -0.055  0.00  0.00    -0.030 A 
ATOM     12  C   LIG    1        6.377   0.190  -0.051  0.00  0.00    +0.000 A 
ATOM     13  C   LIG    1        7.747   0.021  -0.065  0.00  0.00    +0.000 A 
ATOM     14  C   LIG    1        8.289  -1.251  -0.083  0.00  0.00    +0.000 A 
ATOM     15  C   LIG    1        7.463  -2.360  -0.087  0.00  0.00    +0.000 A 
ATOM     16  C   LIG    1        6.092  -2.203  -0.068  0.00  0.00    +0.000 A 
ENDBRANCH   5  11
TORSDOF 1
ENDMDL
MODEL      577
REMARK  Name = ZINC000169794789
REMARK                            x       y       z     vdW  Elec       q    Type
REMARK                         _______ _______ _______ _____ _____    ______ ____
ROOT
ATOM      1 SI   LIG    1        1.193  -1.035  -1.790  0.00  0.00    +0.570 Si
ATOM      2  C   LIG    1        1.202  -2.896  -1.717  0.00  0.00    -0.180 C 
ATOM      3  C   LIG    1        2.930  -0.416  -2.059  0.00  0.00    -0.180 C 
ENDROOT
BRANCH   1   5
ATOM      4  C   LIG    1        0.354   1.162  -0.313  0.00  0.00    +0.030 C 
ATOM      5  C   LIG    1        0.532  -0.353  -0.188  0.00  0.00    -0.290 C 
ATOM      6  C   LIG    1       -0.819  -1.001   0.123  0.00  0.00    +0.030 C 
ATOM      7  C   LIG    1        1.517  -0.659   0.942  0.00  0.00    +0.020 C 
ENDBRANCH   1   5
BRANCH   1   8
ATOM      8 SI   LIG    1       -0.110  -0.360  -3.483  0.00  0.00    +0.550 Si
ATOM      9  C   LIG    1       -1.875  -0.848  -3.140  0.00  0.00    -0.180 C 
ATOM     10  C   LIG    1        0.461  -1.165  -5.064  0.00  0.00    -0.180 C 
ATOM     11  C   LIG    1        0.002   1.491  -3.653  0.00  0.00    -0.180 C 
ENDBRANCH   1   8
TORSDOF 2
ENDMDL
MODEL      578
REMARK  Name = ZINC000077011615
REMARK                            x       y       z     vdW  Elec       q    Type
REMARK                         _______ _______ _______ _____ _____    ______ ____
ROOT
ATOM      1  C   LIG    1       -0.545  -0.093  -1.367  0.00  0.00    -0.160 A 
ATOM      2  C   LIG    1       -0.995  -1.345  -1.814  0.00  0.00    +0.000 A 
ATOM      3  C   LIG    1       -1.388  -2.345  -0.907  0.00  0.00    +0.000 A 
ATOM      4  C   LIG    1       -1.819  -3.548  -1.375  0.00  0.00    +0.010 A 
ATOM      5  C   LIG    1       -1.877  -3.806  -2.744  0.00  0.00    -0.020 A 
ATOM      6  C   LIG    1       -1.505  -2.862  -3.651  0.00  0.00    +0.030 A 
ATOM      7  C   LIG    1       -1.055  -1.607  -3.206  0.00  0.00    -0.100 A 
ATOM      8  C   LIG    1       -0.663  -0.611  -4.117  0.00  0.00    +0.060 A 
ATOM      9  C   LIG    1       -0.232   0.594  -3.659  0.00  0.00    -0.050 A 
ATOM     10  C   LIG    1       -0.175   0.864  -2.287  0.00  0.00    +0.220 A 
ENDROOT
BRANCH   1  12
ATOM     11  C   LIG    1       -0.791   1.683   0.346  0.00  0.00    +0.040 C 
ATOM     12  C   LIG    1       -0.475   0.205   0.109  0.00  0.00    -0.010 C 
ATOM     13  C   LIG    1       -1.493  -0.660   0.854  0.00  0.00    +0.050 C 
ATOM     14  C   LIG    1        0.932  -0.105   0.625  0.00  0.00    +0.030 C 
ENDBRANCH   1  12
BRANCH  10  15
ATOM     15  N   LIG    1        0.272   2.110  -1.845  0.00  0.00    -0.890 N 
ATOM     16  H   LIG    1        0.541   2.230  -0.921  0.00  0.00    +0.400 HD
ATOM     17  H   LIG    1        0.313   2.857  -2.463  0.00  0.00    +0.390 HD
ENDBRANCH  10  15
TORSDOF 2
ENDMDL
MODEL      579
REMARK  Name = ZINC000043763637
REMARK                            x       y       z     vdW  Elec       q    Type
REMARK                         _______ _______ _______ _____ _____    ______ ____
ROOT
ATOM      1  O   LIG    1        0.002  -0.004   0.002  0.00  0.00    -0.460 OA
ATOM      2  C   LIG    1       -0.014   1.211   0.009  0.00  0.00    +0.360 C 
ATOM      3  C   LIG    1       -1.317   1.979   0.032  0.00  0.00    +0.030 C 
ATOM      4  C   LIG    1       -1.217   3.170  -0.911  0.00  0.00    -0.010 C 
ATOM      5  C   LIG    1       -0.111   4.102  -0.495  0.00  0.00    +0.020 C 
ATOM      6  C   LIG    1        0.955   3.463   0.365  0.00  0.00    -0.010 C 
ATOM      7  C   LIG    1        2.235   4.308   0.271  0.00  0.00    +0.010 C 
ATOM      8  C   LIG    1        2.821   4.263  -1.137  0.00  0.00    +0.000 C 
ATOM      9  C   LIG    1        2.252   5.379  -2.012  0.00  0.00    +0.010 C 
ATOM     10  C   LIG    1        1.894   4.837  -3.395  0.00  0.00    +0.000 C 
ATOM     11  C   LIG    1        0.424   4.419  -3.471  0.00  0.00    +0.010 C 
ATOM     12  C   LIG    1        0.272   2.989  -2.956  0.00  0.00    +0.010 C 
ATOM     13  C   LIG    1       -1.108   2.737  -2.368  0.00  0.00    +0.010 C 
ATOM     14  C   LIG    1        1.266   2.020   0.001  0.00  0.00    +0.030 C 
ENDROOT
TORSDOF 0
ENDMDL
MODEL      580
REMARK  Name = ZINC000039274311
REMARK                            x       y       z     vdW  Elec       q    Type
REMARK                         _______ _______ _______ _____ _____    ______ ____
ROOT
ATOM      1  C   LIG    1        0.707  -0.490  -1.238  0.00  0.00    +0.030 A 
ATOM      2  C   LIG    1        0.169  -1.266  -2.201  0.00  0.00    -0.060 A 
ATOM      3  C   LIG    1        1.166  -1.483  -3.173  0.00  0.00    -0.060 A 
ATOM      4  C   LIG    1        2.275  -0.832  -2.767  0.00  0.00    +0.030 A 
ATOM      5  N   LIG    1        1.998  -0.216  -1.583  0.00  0.00    -0.550 N 
ATOM      6  H   LIG    1        2.618   0.322  -1.067  0.00  0.00    +0.410 HD
ENDROOT
BRANCH   1   8
ATOM      7  C   LIG    1       -0.019   1.526   0.010  0.00  0.00    +0.030 C 
ATOM      8  C   LIG    1        0.002  -0.004   0.002  0.00  0.00    +0.000 C 
ATOM      9  C   LIG    1       -1.433  -0.534   0.013  0.00  0.00    +0.040 C 
ATOM     10  C   LIG    1        0.742  -0.511   1.242  0.00  0.00    +0.030 C 
ENDBRANCH   1   8
BRANCH   4  11
ATOM     11  C   LIG    1        3.591  -0.787  -3.500  0.00  0.00    +0.000 C 
ATOM     12  C   LIG    1        4.688  -1.379  -2.613  0.00  0.00    +0.030 C 
ATOM     13  C   LIG    1        3.936   0.664  -3.839  0.00  0.00    +0.030 C 
ATOM     14  C   LIG    1        3.484  -1.601  -4.791  0.00  0.00    +0.040 C 
ENDBRANCH   4  11
TORSDOF 2
ENDMDL
MODEL      581
REMARK  Name = ZINC000055161645
REMARK                            x       y       z     vdW  Elec       q    Type
REMARK                         _______ _______ _______ _____ _____    ______ ____
ROOT
ATOM      1  C   LIG    1        0.707  -0.490  -1.238  0.00  0.00    -0.070 A 
ATOM      2  C   LIG    1        0.036  -1.284  -2.148  0.00  0.00    +0.030 A 
ATOM      3  C   LIG    1        0.682  -1.730  -3.286  0.00  0.00    +0.020 A 
ATOM      4  C   LIG    1        2.002  -1.382  -3.513  0.00  0.00    -0.040 A 
ATOM      5  C   LIG    1        2.673  -0.587  -2.601  0.00  0.00    +0.020 A 
ATOM      6 CL   LIG    1        2.814  -1.941  -4.941  0.00  0.00    -0.070 Cl
ATOM      7  C   LIG    1        2.024  -0.137  -1.467  0.00  0.00    +0.030 A 
ENDROOT
BRANCH   1   9
ATOM      8  C   LIG    1       -0.019   1.526   0.010  0.00  0.00    +0.040 C 
ATOM      9  C   LIG    1        0.002  -0.004   0.002  0.00  0.00    -0.030 C 
ATOM     10  C   LIG    1       -1.433  -0.534   0.013  0.00  0.00    +0.030 C 
ATOM     11  C   LIG    1        0.742  -0.511   1.242  0.00  0.00    +0.040 C 
ENDBRANCH   1   9
TORSDOF 1
ENDMDL
MODEL      582
REMARK  Name = ZINC000001518242
REMARK                            x       y       z     vdW  Elec       q    Type
REMARK                         _______ _______ _______ _____ _____    ______ ____
ROOT
ATOM      1  C   LIG    1        0.707  -0.490  -1.238  0.00  0.00    +0.110 A 
ATOM      2  C   LIG    1        0.154  -1.263  -2.186  0.00  0.00    -0.050 A 
ATOM      3  C   LIG    1        1.183  -1.495  -3.203  0.00  0.00    -0.080 A 
ATOM      4  C   LIG    1        1.215  -2.205  -4.405  0.00  0.00    +0.030 A 
ATOM      5  C   LIG    1        2.373  -2.229  -5.152  0.00  0.00    +0.070 A 
ATOM      6  C   LIG    1        3.504  -1.550  -4.714  0.00  0.00    +0.010 A 
ATOM      7  C   LIG    1        3.487  -0.846  -3.531  0.00  0.00    +0.030 A 
ATOM      8  F   LIG    1        2.409  -2.914  -6.316  0.00  0.00    -0.140 F 
ATOM      9  C   LIG    1        2.329  -0.809  -2.762  0.00  0.00    +0.090 A 
ATOM     10  N   LIG    1        2.004  -0.204  -1.567  0.00  0.00    -0.590 N 
ATOM     11  H   LIG    1        2.607   0.341  -1.036  0.00  0.00    +0.410 HD
ENDROOT
BRANCH   1  13
ATOM     12  C   LIG    1       -0.019   1.526   0.010  0.00  0.00    +0.040 C 
ATOM     13  C   LIG    1        0.002  -0.004   0.002  0.00  0.00    -0.010 C 
ATOM     14  C   LIG    1       -1.433  -0.534   0.013  0.00  0.00    +0.050 C 
ATOM     15  C   LIG    1        0.742  -0.511   1.242  0.00  0.00    +0.040 C 
ENDBRANCH   1  13
TORSDOF 1
ENDMDL
MODEL      583
REMARK  Name = ZINC000001643339
REMARK                            x       y       z     vdW  Elec       q    Type
REMARK                         _______ _______ _______ _____ _____    ______ ____
ROOT
ATOM      1  C   LIG    1       -0.019   1.526   0.010  0.00  0.00    +0.030 C 
ATOM      2  C   LIG    1        0.002  -0.004   0.002  0.00  0.00    +0.280 C 
ENDROOT
BRANCH   2   3
ATOM      3  C   LIG    1        0.707  -0.490  -1.238  0.00  0.00    -0.090 A 
ATOM      4  C   LIG    1        0.038  -0.522  -2.447  0.00  0.00    +0.010 A 
ATOM      5  C   LIG    1        0.685  -0.967  -3.584  0.00  0.00    +0.000 A 
ATOM      6  C   LIG    1        2.002  -1.381  -3.513  0.00  0.00    +0.000 A 
ATOM      7  C   LIG    1        2.672  -1.349  -2.304  0.00  0.00    +0.000 A 
ATOM      8  C   LIG    1        2.026  -0.899  -1.167  0.00  0.00    +0.010 A 
ENDBRANCH   2   3
BRANCH   2   9
ATOM      9  N   LIG    1       -1.372  -0.511   0.012  0.00  0.00    -0.740 N 
ATOM     10  H   LIG    1       -1.810  -0.743  -0.822  0.00  0.00    +0.400 HD
BRANCH   9  11
ATOM     11  C   LIG    1       -2.053  -0.660   1.223  0.00  0.00    +0.220 A 
ATOM     12  C   LIG    1       -1.429  -0.323   2.418  0.00  0.00    -0.080 A 
ATOM     13  C   LIG    1       -2.105  -0.471   3.613  0.00  0.00    +0.050 A 
ATOM     14  C   LIG    1       -3.400  -0.956   3.622  0.00  0.00    -0.060 A 
ATOM     15  C   LIG    1       -4.024  -1.292   2.434  0.00  0.00    +0.050 A 
ATOM     16  C   LIG    1       -3.356  -1.141   1.235  0.00  0.00    -0.080 A 
ENDBRANCH   9  11
ENDBRANCH   2   9
TORSDOF 3
ENDMDL
MODEL      584
REMARK  Name = ZINC000111341171
REMARK                            x       y       z     vdW  Elec       q    Type
REMARK                         _______ _______ _______ _____ _____    ______ ____
ROOT
ATOM      1  C   LIG    1        0.707  -0.490  -1.238  0.00  0.00    -0.060 A 
ATOM      2  C   LIG    1        0.036  -1.284  -2.148  0.00  0.00    +0.010 A 
ATOM      3  C   LIG    1        0.682  -1.730  -3.286  0.00  0.00    +0.030 A 
ATOM      4  C   LIG    1        2.000  -1.382  -3.514  0.00  0.00    +0.010 A 
ATOM      5  C   LIG    1        2.673  -0.587  -2.603  0.00  0.00    -0.030 A 
ATOM      6 CL   LIG    1        4.329  -0.150  -2.888  0.00  0.00    -0.070 Cl
ATOM      7  C   LIG    1        2.024  -0.137  -1.467  0.00  0.00    +0.020 A 
ENDROOT
BRANCH   1   9
ATOM      8  C   LIG    1       -0.019   1.526   0.010  0.00  0.00    +0.040 C 
ATOM      9  C   LIG    1        0.002  -0.004   0.002  0.00  0.00    -0.030 C 
ATOM     10  C   LIG    1       -1.433  -0.534   0.013  0.00  0.00    +0.030 C 
ATOM     11  C   LIG    1        0.742  -0.511   1.242  0.00  0.00    +0.040 C 
ENDBRANCH   1   9
TORSDOF 1
ENDMDL
MODEL      585
REMARK  Name = ZINC000013282445
REMARK                            x       y       z     vdW  Elec       q    Type
REMARK                         _______ _______ _______ _____ _____    ______ ____
ROOT
ATOM      1  C   LIG    1        0.707  -0.490  -1.238  0.00  0.00    -0.060 A 
ATOM      2  C   LIG    1        0.022  -1.290  -2.150  0.00  0.00    +0.040 A 
ATOM      3  C   LIG    1        0.629  -1.746  -3.279  0.00  0.00    +0.050 A 
ATOM      4  C   LIG    1        1.969  -1.407  -3.536  0.00  0.00    +0.120 A 
ATOM      5  N   LIG    1        2.591  -1.840  -4.638  0.00  0.00    -0.470 NA
ATOM      6  C   LIG    1        3.841  -1.526  -4.882  0.00  0.00    +0.290 A 
ATOM      7  C   LIG    1        4.581  -0.730  -4.010  0.00  0.00    -0.040 A 
ATOM      8  C   LIG    1        4.006  -0.255  -2.866  0.00  0.00    +0.080 A 
ATOM      9  C   LIG    1        2.664  -0.593  -2.607  0.00  0.00    -0.100 A 
ATOM     10  C   LIG    1        2.005  -0.137  -1.455  0.00  0.00    +0.030 A 
ENDROOT
BRANCH   1  12
ATOM     11  C   LIG    1       -0.019   1.526   0.010  0.00  0.00    +0.040 C 
ATOM     12  C   LIG    1        0.002  -0.004   0.002  0.00  0.00    -0.030 C 
ATOM     13  C   LIG    1       -1.433  -0.534   0.013  0.00  0.00    +0.030 C 
ATOM     14  C   LIG    1        0.742  -0.511   1.242  0.00  0.00    +0.040 C 
ENDBRANCH   1  12
TORSDOF 1
ENDMDL
MODEL      586
REMARK  Name = ZINC000001716337
REMARK                            x       y       z     vdW  Elec       q    Type
REMARK                         _______ _______ _______ _____ _____    ______ ____
ROOT
ATOM      1  C   LIG    1        0.707  -0.490  -1.238  0.00  0.00    +0.150 A 
ATOM      2  C   LIG    1        1.304   0.423  -2.087  0.00  0.00    -0.040 A 
ATOM      3  C   LIG    1        1.950  -0.034  -3.225  0.00  0.00    +0.060 A 
ATOM      4  C   LIG    1        1.973  -1.399  -3.467  0.00  0.00    -0.040 A 
ATOM      5  C   LIG    1        1.354  -2.252  -2.573  0.00  0.00    +0.150 A 
ATOM      6  N   LIG    1        0.753  -1.782  -1.498  0.00  0.00    -0.470 NA
ENDROOT
BRANCH   1   8
ATOM      7  C   LIG    1       -0.019   1.526   0.010  0.00  0.00    +0.030 C 
ATOM      8  C   LIG    1        0.002  -0.004   0.002  0.00  0.00    -0.020 C 
ATOM      9  C   LIG    1       -1.433  -0.534   0.013  0.00  0.00    +0.050 C 
ATOM     10  C   LIG    1        0.742  -0.511   1.242  0.00  0.00    +0.040 C 
ENDBRANCH   1   8
BRANCH   5  11
ATOM     11  C   LIG    1        1.372  -3.738  -2.826  0.00  0.00    -0.020 C 
ATOM     12  C   LIG    1       -0.055  -4.230  -3.075  0.00  0.00    +0.040 C 
ATOM     13  C   LIG    1        1.955  -4.456  -1.608  0.00  0.00    +0.050 C 
ATOM     14  C   LIG    1        2.235  -4.035  -4.054  0.00  0.00    +0.030 C 
ENDBRANCH   5  11
TORSDOF 2
ENDMDL
MODEL      587
REMARK  Name = ZINC000033606572
REMARK                            x       y       z     vdW  Elec       q    Type
REMARK                         _______ _______ _______ _____ _____    ______ ____
ROOT
ATOM      1  C   LIG    1        0.707  -0.490  -1.238  0.00  0.00    -0.040 A 
ATOM      2  C   LIG    1        0.849  -1.868  -1.475  0.00  0.00    +0.130 A 
ATOM      3  N   LIG    1        0.365  -2.770  -0.614  0.00  0.00    -0.460 NA
ATOM      4  C   LIG    1        0.494  -4.056  -0.830  0.00  0.00    +0.290 A 
ATOM      5  C   LIG    1        1.139  -4.548  -1.963  0.00  0.00    -0.040 A 
ATOM      6  C   LIG    1        1.656  -3.682  -2.883  0.00  0.00    +0.080 A 
ATOM      7  C   LIG    1        1.516  -2.301  -2.648  0.00  0.00    -0.100 A 
ATOM      8  C   LIG    1        2.022  -1.351  -3.549  0.00  0.00    +0.020 A 
ATOM      9  C   LIG    1        1.866  -0.024  -3.285  0.00  0.00    +0.020 A 
ATOM     10  C   LIG    1        1.205   0.404  -2.135  0.00  0.00    +0.020 A 
ENDROOT
BRANCH   1  12
ATOM     11  C   LIG    1       -0.019   1.526   0.010  0.00  0.00    +0.030 C 
ATOM     12  C   LIG    1        0.002  -0.004   0.002  0.00  0.00    -0.020 C 
ATOM     13  C   LIG    1       -1.433  -0.534   0.013  0.00  0.00    +0.050 C 
ATOM     14  C   LIG    1        0.742  -0.511   1.242  0.00  0.00    +0.050 C 
ENDBRANCH   1  12
TORSDOF 1
ENDMDL
MODEL      588
REMARK  Name = ZINC000070205220
REMARK                            x       y       z     vdW  Elec       q    Type
REMARK                         _______ _______ _______ _____ _____    ______ ____
ROOT
ATOM      1  C   LIG    1        1.127  -0.036  -0.322  0.00  0.00    -0.050 A 
ATOM      2  C   LIG    1        1.747   0.996  -0.998  0.00  0.00    +0.020 A 
ATOM      3  C   LIG    1        1.416   1.261  -2.314  0.00  0.00    +0.030 A 
ATOM      4  C   LIG    1        0.462   0.494  -2.957  0.00  0.00    +0.010 A 
ATOM      5  C   LIG    1       -0.163  -0.539  -2.286  0.00  0.00    +0.030 A 
ATOM      6  C   LIG    1        0.172  -0.811  -0.967  0.00  0.00    +0.110 A 
ENDROOT
BRANCH   6   7
ATOM      7  N   LIG    1       -0.459  -1.860  -0.283  0.00  0.00    -0.410 N 
ATOM      8  C   LIG    1       -1.653  -1.777   0.374  0.00  0.00    +0.160 A 
ATOM      9  C   LIG    1       -1.929  -2.987   0.902  0.00  0.00    -0.060 A 
ATOM     10  C   LIG    1       -0.868  -3.849   0.559  0.00  0.00    -0.060 A 
ATOM     11  C   LIG    1        0.014  -3.136  -0.170  0.00  0.00    +0.160 A 
ENDBRANCH   6   7
BRANCH   1  13
ATOM     12  C   LIG    1        0.223  -0.316   1.970  0.00  0.00    +0.030 C 
ATOM     13  C   LIG    1        1.489  -0.325   1.112  0.00  0.00    -0.030 C 
ATOM     14  C   LIG    1        2.157  -1.698   1.203  0.00  0.00    +0.030 C 
ATOM     15  C   LIG    1        2.457   0.747   1.619  0.00  0.00    +0.030 C 
ENDBRANCH   1  13
TORSDOF 2
ENDMDL
MODEL      589
REMARK  Name = ZINC000019772236
REMARK                            x       y       z     vdW  Elec       q    Type
REMARK                         _______ _______ _______ _____ _____    ______ ____
ROOT
ATOM      1  C   LIG    1        0.584   0.033  -3.675  0.00  0.00    +0.220 A 
ATOM      2  C   LIG    1        1.950  -0.190  -3.782  0.00  0.00    -0.060 A 
ATOM      3  C   LIG    1        2.579  -0.044  -5.003  0.00  0.00    +0.070 A 
ATOM      4  C   LIG    1        1.849   0.324  -6.119  0.00  0.00    -0.100 A 
ATOM      5  C   LIG    1        0.487   0.547  -6.015  0.00  0.00    +0.070 A 
ATOM      6 CL   LIG    1        2.642   0.506  -7.652  0.00  0.00    -0.080 Cl
ATOM      7  C   LIG    1       -0.148   0.397  -4.798  0.00  0.00    -0.060 A 
ENDROOT
BRANCH   1   8
ATOM      8  N   LIG    1       -0.055  -0.114  -2.441  0.00  0.00    -0.740 N 
ATOM      9  H   LIG    1       -1.010   0.038  -2.368  0.00  0.00    +0.400 HD
BRANCH   8  10
ATOM     10  C   LIG    1        0.718  -0.497  -1.257  0.00  0.00    +0.220 C 
ATOM     11  C   LIG    1        0.849  -2.021  -1.205  0.00  0.00    +0.020 C 
BRANCH  10  13
ATOM     12  C   LIG    1       -0.019   1.526   0.010  0.00  0.00    +0.030 C 
ATOM     13  C   LIG    1        0.002  -0.004   0.002  0.00  0.00    +0.020 C 
ENDBRANCH  10  13
ENDBRANCH   8  10
ENDBRANCH   1   8
TORSDOF 3
ENDMDL
MODEL      590
REMARK  Name = ZINC000019772355
REMARK                            x       y       z     vdW  Elec       q    Type
REMARK                         _______ _______ _______ _____ _____    ______ ____
ROOT
ATOM      1  C   LIG    1       -3.472  -0.050   1.336  0.00  0.00    +0.230 A 
ATOM      2  C   LIG    1       -4.243  -0.296   0.207  0.00  0.00    -0.090 A 
ATOM      3  C   LIG    1       -5.618  -0.184   0.273  0.00  0.00    -0.040 A 
ATOM      4  C   LIG    1       -6.228   0.171   1.462  0.00  0.00    -0.060 A 
ATOM      5  C   LIG    1       -5.464   0.417   2.588  0.00  0.00    -0.040 A 
ATOM      6  C   LIG    1       -6.133   0.805   3.882  0.00  0.00    +0.080 C 
ATOM      7  C   LIG    1       -6.454  -0.451  -0.951  0.00  0.00    +0.080 C 
ATOM      8  C   LIG    1       -4.088   0.303   2.530  0.00  0.00    -0.080 A 
ENDROOT
BRANCH   1   9
ATOM      9  N   LIG    1       -2.082  -0.162   1.273  0.00  0.00    -0.740 N 
ATOM     10  H   LIG    1       -1.545   0.006   2.063  0.00  0.00    +0.400 HD
BRANCH   9  11
ATOM     11  C   LIG    1       -1.433  -0.534   0.013  0.00  0.00    +0.230 C 
ATOM     12  C   LIG    1       -1.416  -2.058  -0.121  0.00  0.00    +0.010 C 
BRANCH  11  14
ATOM     13  C   LIG    1       -0.019   1.526   0.010  0.00  0.00    +0.020 C 
ATOM     14  C   LIG    1        0.002  -0.004   0.002  0.00  0.00    +0.020 C 
ENDBRANCH  11  14
ENDBRANCH   9  11
ENDBRANCH   1   9
TORSDOF 3
ENDMDL
MODEL      591
REMARK  Name = ZINC000019772374
REMARK                            x       y       z     vdW  Elec       q    Type
REMARK                         _______ _______ _______ _____ _____    ______ ____
ROOT
ATOM      1  C   LIG    1        0.583   0.033  -3.674  0.00  0.00    +0.220 A 
ATOM      2  C   LIG    1        1.950  -0.190  -3.781  0.00  0.00    -0.080 A 
ATOM      3  C   LIG    1        2.578  -0.044  -5.003  0.00  0.00    +0.050 A 
ATOM      4  C   LIG    1        1.848   0.323  -6.118  0.00  0.00    -0.060 A 
ATOM      5  C   LIG    1        0.487   0.546  -6.015  0.00  0.00    -0.040 A 
ATOM      6  C   LIG    1       -0.305   0.946  -7.233  0.00  0.00    +0.090 C 
ATOM      7  C   LIG    1       -0.148   0.397  -4.798  0.00  0.00    -0.170 A 
ATOM      8  C   LIG    1       -1.631   0.640  -4.686  0.00  0.00    +0.080 C 
ENDROOT
BRANCH   1   9
ATOM      9  N   LIG    1       -0.055  -0.114  -2.441  0.00  0.00    -0.740 N 
ATOM     10  H   LIG    1       -1.010   0.038  -2.368  0.00  0.00    +0.400 HD
BRANCH   9  11
ATOM     11  C   LIG    1        0.718  -0.497  -1.257  0.00  0.00    +0.230 C 
ATOM     12  C   LIG    1        0.849  -2.021  -1.205  0.00  0.00    +0.010 C 
BRANCH  11  14
ATOM     13  C   LIG    1       -0.019   1.526   0.010  0.00  0.00    +0.020 C 
ATOM     14  C   LIG    1        0.002  -0.004   0.002  0.00  0.00    +0.020 C 
ENDBRANCH  11  14
ENDBRANCH   9  11
ENDBRANCH   1   9
TORSDOF 3
ENDMDL
MODEL      592
REMARK  Name = ZINC000019772199
REMARK                            x       y       z     vdW  Elec       q    Type
REMARK                         _______ _______ _______ _____ _____    ______ ____
ROOT
ATOM      1  C   LIG    1        2.895   0.031   2.344  0.00  0.00    +0.210 A 
ATOM      2  C   LIG    1        2.308  -0.225   3.577  0.00  0.00    -0.070 A 
ATOM      3  C   LIG    1        3.050  -0.091   4.734  0.00  0.00    +0.040 A 
ATOM      4  C   LIG    1        4.375   0.298   4.667  0.00  0.00    -0.140 A 
ATOM      5  C   LIG    1        4.962   0.554   3.441  0.00  0.00    +0.050 A 
ATOM      6  C   LIG    1        5.181   0.443   5.931  0.00  0.00    +0.070 C 
ATOM      7  C   LIG    1        4.228   0.417   2.280  0.00  0.00    -0.160 A 
ATOM      8  C   LIG    1        4.869   0.696   0.944  0.00  0.00    +0.090 C 
ENDROOT
BRANCH   1   9
ATOM      9  N   LIG    1        2.148  -0.104   1.172  0.00  0.00    -0.740 N 
ATOM     10  H   LIG    1        2.559   0.072   0.311  0.00  0.00    +0.400 HD
BRANCH   9  11
ATOM     11  C   LIG    1        0.742  -0.511   1.242  0.00  0.00    +0.230 C 
ATOM     12  C   LIG    1        0.655  -2.037   1.299  0.00  0.00    +0.010 C 
BRANCH  11  14
ATOM     13  C   LIG    1       -0.019   1.526   0.010  0.00  0.00    +0.020 C 
ATOM     14  C   LIG    1        0.002  -0.004   0.002  0.00  0.00    +0.020 C 
ENDBRANCH  11  14
ENDBRANCH   9  11
ENDBRANCH   1   9
TORSDOF 3
ENDMDL
MODEL      593
REMARK  Name = ZINC000019772254
REMARK                            x       y       z     vdW  Elec       q    Type
REMARK                         _______ _______ _______ _____ _____    ______ ____
ROOT
ATOM      1  C   LIG    1       -3.473  -0.050   1.336  0.00  0.00    +0.230 A 
ATOM      2  C   LIG    1       -4.243  -0.295   0.208  0.00  0.00    -0.060 A 
ATOM      3  C   LIG    1       -5.619  -0.184   0.274  0.00  0.00    +0.060 A 
ATOM      4  C   LIG    1       -6.229   0.173   1.462  0.00  0.00    -0.040 A 
ATOM      5  C   LIG    1       -5.465   0.419   2.588  0.00  0.00    +0.070 A 
ATOM      6  C   LIG    1       -4.090   0.303   2.531  0.00  0.00    -0.120 A 
ATOM      7 CL   LIG    1       -3.132   0.612   3.946  0.00  0.00    -0.080 Cl
ENDROOT
BRANCH   1   8
ATOM      8  N   LIG    1       -2.082  -0.162   1.273  0.00  0.00    -0.740 N 
ATOM      9  H   LIG    1       -1.545   0.006   2.063  0.00  0.00    +0.400 HD
BRANCH   8  10
ATOM     10  C   LIG    1       -1.433  -0.534   0.013  0.00  0.00    +0.230 C 
ATOM     11  C   LIG    1       -1.416  -2.058  -0.121  0.00  0.00    +0.020 C 
BRANCH  10  13
ATOM     12  C   LIG    1       -0.019   1.526   0.010  0.00  0.00    +0.030 C 
ATOM     13  C   LIG    1        0.002  -0.004   0.002  0.00  0.00    +0.020 C 
ENDBRANCH  10  13
ENDBRANCH   8  10
ENDBRANCH   1   8
TORSDOF 3
ENDMDL
MODEL      594
REMARK  Name = ZINC000019879260
REMARK                            x       y       z     vdW  Elec       q    Type
REMARK                         _______ _______ _______ _____ _____    ______ ____
ROOT
ATOM      1  N   LIG    1        3.620  -0.649  -0.035  0.00  0.00    -0.750 N 
ATOM      2  H   LIG    1        4.452  -0.152  -0.040  0.00  0.00    +0.400 HD
ENDROOT
BRANCH   1   6
ATOM      3  C   LIG    1       -0.017   1.379   0.010  0.00  0.00    -0.060 A 
ATOM      4  C   LIG    1        1.169   2.089   0.002  0.00  0.00    +0.050 A 
ATOM      5  C   LIG    1        2.377   1.420  -0.013  0.00  0.00    -0.080 A 
ATOM      6  C   LIG    1        2.400   0.031  -0.021  0.00  0.00    +0.210 A 
ATOM      7  C   LIG    1        1.206  -0.680  -0.013  0.00  0.00    -0.080 A 
ATOM      8  C   LIG    1        0.002  -0.004   0.002  0.00  0.00    +0.050 A 
ENDBRANCH   1   6
BRANCH   1   9
ATOM      9  C   LIG    1        3.641  -2.114  -0.043  0.00  0.00    +0.250 C 
BRANCH   9  10
ATOM     10  C   LIG    1        5.091  -2.602  -0.059  0.00  0.00    -0.020 C 
ATOM     11  C   LIG    1        5.781  -2.195   1.244  0.00  0.00    +0.010 C 
ATOM     12  C   LIG    1        7.231  -2.683   1.228  0.00  0.00    +0.000 C 
ATOM     13  C   LIG    1        7.254  -4.207   1.094  0.00  0.00    +0.000 C 
ATOM     14  C   LIG    1        6.564  -4.615  -0.209  0.00  0.00    +0.000 C 
ATOM     15  C   LIG    1        5.115  -4.126  -0.193  0.00  0.00    +0.020 C 
ENDBRANCH   9  10
ENDBRANCH   1   9
TORSDOF 3
ENDMDL
MODEL      595
REMARK  Name = ZINC000019879322
REMARK                            x       y       z     vdW  Elec       q    Type
REMARK                         _______ _______ _______ _____ _____    ______ ____
ROOT
ATOM      1  N   LIG    1       -0.876  -2.426  -1.433  0.00  0.00    -0.740 N 
ATOM      2  H   LIG    1       -0.936  -1.804  -2.174  0.00  0.00    +0.400 HD
ENDROOT
BRANCH   1   3
ATOM      3  C   LIG    1       -0.277  -3.675  -1.615  0.00  0.00    +0.220 A 
ATOM      4  C   LIG    1       -0.197  -4.570  -0.556  0.00  0.00    -0.080 A 
ATOM      5  C   LIG    1        0.396  -5.804  -0.741  0.00  0.00    +0.050 A 
ATOM      6  C   LIG    1        0.910  -6.148  -1.978  0.00  0.00    -0.060 A 
ATOM      7  C   LIG    1        0.831  -5.259  -3.034  0.00  0.00    +0.050 A 
ATOM      8  C   LIG    1        0.235  -4.026  -2.858  0.00  0.00    -0.080 A 
ENDBRANCH   1   3
BRANCH   1   9
ATOM      9  C   LIG    1       -1.416  -2.058  -0.121  0.00  0.00    +0.230 C 
ATOM     10  C   LIG    1       -2.841  -2.598   0.015  0.00  0.00    +0.010 C 
BRANCH   9  11
ATOM     11  C   LIG    1       -1.433  -0.534   0.013  0.00  0.00    +0.030 C 
BRANCH  11  13
ATOM     12  C   LIG    1       -0.019   1.526   0.010  0.00  0.00    +0.000 C 
ATOM     13  C   LIG    1        0.002  -0.004   0.002  0.00  0.00    -0.030 C 
ATOM     14  C   LIG    1        0.742  -0.511   1.242  0.00  0.00    +0.010 C 
ENDBRANCH  11  13
ENDBRANCH   9  11
ENDBRANCH   1   9
TORSDOF 4
ENDMDL
MODEL      596
REMARK  Name = ZINC000019879242
REMARK                            x       y       z     vdW  Elec       q    Type
REMARK                         _______ _______ _______ _____ _____    ______ ____
ROOT
ATOM      1  N   LIG    1        3.620  -0.649  -0.035  0.00  0.00    -0.750 N 
ATOM      2  H   LIG    1        4.452  -0.152  -0.040  0.00  0.00    +0.400 HD
ENDROOT
BRANCH   1   3
ATOM      3  C   LIG    1        3.641  -2.114  -0.043  0.00  0.00    +0.230 C 
ATOM      4  C   LIG    1        3.536  -2.613  -1.459  0.00  0.00    -0.010 C 
ATOM      5  C   LIG    1        2.753  -3.936  -1.561  0.00  0.00    +0.000 C 
ATOM      6  C   LIG    1        3.109  -4.930  -0.439  0.00  0.00    +0.000 C 
ATOM      7  C   LIG    1        4.587  -4.973  -0.156  0.00  0.00    +0.010 C 
ATOM      8  C   LIG    1        4.892  -3.999   1.001  0.00  0.00    +0.000 C 
ATOM      9  C   LIG    1        4.971  -2.616   0.556  0.00  0.00    +0.020 C 
ENDBRANCH   1   3
BRANCH   1  13
ATOM     10  C   LIG    1       -0.017   1.379   0.010  0.00  0.00    -0.060 A 
ATOM     11  C   LIG    1        1.169   2.089   0.002  0.00  0.00    +0.050 A 
ATOM     12  C   LIG    1        2.377   1.420  -0.013  0.00  0.00    -0.080 A 
ATOM     13  C   LIG    1        2.400   0.031  -0.021  0.00  0.00    +0.220 A 
ATOM     14  C   LIG    1        1.206  -0.680  -0.013  0.00  0.00    -0.080 A 
ATOM     15  C   LIG    1        0.002  -0.004   0.002  0.00  0.00    +0.050 A 
ENDBRANCH   1  13
TORSDOF 2
ENDMDL
MODEL      597
REMARK  Name = ZINC000019906478
REMARK                            x       y       z     vdW  Elec       q    Type
REMARK                         _______ _______ _______ _____ _____    ______ ____
ROOT
ATOM      1  C   LIG    1       -3.476  -0.049   1.337  0.00  0.00    +0.220 A 
ATOM      2  C   LIG    1       -4.244  -0.296   0.206  0.00  0.00    -0.050 A 
ATOM      3  C   LIG    1       -5.619  -0.185   0.269  0.00  0.00    +0.080 A 
ATOM      4  C   LIG    1       -6.234   0.172   1.462  0.00  0.00    -0.140 A 
ATOM      5  C   LIG    1       -5.464   0.419   2.593  0.00  0.00    +0.040 A 
ATOM      6  C   LIG    1       -4.090   0.303   2.531  0.00  0.00    -0.060 A 
ENDROOT
BRANCH   1   7
ATOM      7  N   LIG    1       -2.082  -0.162   1.273  0.00  0.00    -0.740 N 
ATOM      8  H   LIG    1       -1.545   0.006   2.063  0.00  0.00    +0.400 HD
BRANCH   7   9
ATOM      9  C   LIG    1       -1.433  -0.534   0.013  0.00  0.00    +0.230 C 
ATOM     10  C   LIG    1       -1.416  -2.058  -0.121  0.00  0.00    +0.010 C 
BRANCH   9  12
ATOM     11  C   LIG    1       -0.019   1.526   0.010  0.00  0.00    +0.030 C 
ATOM     12  C   LIG    1        0.002  -0.004   0.002  0.00  0.00    +0.020 C 
ENDBRANCH   9  12
ENDBRANCH   7   9
ENDBRANCH   1   7
BRANCH   4  13
ATOM     13  S   LIG    1       -7.988   0.313   1.543  0.00  0.00    -0.130 S 
ATOM     14  C   LIG    1       -8.281   0.790   3.268  0.00  0.00    +0.130 C 
ENDBRANCH   4  13
TORSDOF 4
ENDMDL
MODEL      598
REMARK  Name = ZINC000019920681
REMARK                            x       y       z     vdW  Elec       q    Type
REMARK                         _______ _______ _______ _____ _____    ______ ____
ROOT
ATOM      1  N   LIG    1       -0.876  -2.426  -1.433  0.00  0.00    -0.740 N 
ATOM      2  H   LIG    1       -0.936  -1.804  -2.174  0.00  0.00    +0.400 HD
ENDROOT
BRANCH   1   3
ATOM      3  C   LIG    1       -0.277  -3.675  -1.615  0.00  0.00    +0.250 A 
ATOM      4  C   LIG    1       -0.197  -4.570  -0.556  0.00  0.00    -0.080 A 
ATOM      5  C   LIG    1        0.396  -5.804  -0.739  0.00  0.00    +0.090 A 
ATOM      6  C   LIG    1        0.910  -6.150  -1.975  0.00  0.00    -0.090 A 
ATOM      7  C   LIG    1        0.833  -5.260  -3.034  0.00  0.00    +0.150 A 
ATOM      8  F   LIG    1        1.336  -5.601  -4.240  0.00  0.00    -0.140 F 
ATOM      9  C   LIG    1        0.234  -4.025  -2.858  0.00  0.00    -0.110 A 
ENDBRANCH   1   3
BRANCH   1  10
ATOM     10  C   LIG    1       -1.416  -2.058  -0.121  0.00  0.00    +0.220 C 
ATOM     11  C   LIG    1       -2.841  -2.598   0.015  0.00  0.00    +0.020 C 
BRANCH  10  12
ATOM     12  C   LIG    1       -1.433  -0.534   0.013  0.00  0.00    +0.030 C 
BRANCH  12  14
ATOM     13  C   LIG    1       -0.019   1.526   0.010  0.00  0.00    +0.010 C 
ATOM     14  C   LIG    1        0.002  -0.004   0.002  0.00  0.00    -0.030 C 
ATOM     15  C   LIG    1        0.742  -0.511   1.242  0.00  0.00    +0.010 C 
ENDBRANCH  12  14
ENDBRANCH  10  12
ENDBRANCH   1  10
TORSDOF 4
ENDMDL
MODEL      599
REMARK  Name = ZINC000019920683
REMARK                            x       y       z     vdW  Elec       q    Type
REMARK                         _______ _______ _______ _____ _____    ______ ____
ROOT
ATOM      1  N   LIG    1       -0.932  -2.547   1.293  0.00  0.00    -0.740 N 
ATOM      2  H   LIG    1       -1.019  -1.997   2.087  0.00  0.00    +0.400 HD
ENDROOT
BRANCH   1   3
ATOM      3  C   LIG    1       -0.342  -3.810   1.380  0.00  0.00    +0.250 A 
ATOM      4  C   LIG    1       -0.212  -4.597   0.243  0.00  0.00    -0.080 A 
ATOM      5  C   LIG    1        0.372  -5.846   0.331  0.00  0.00    +0.090 A 
ATOM      6  C   LIG    1        0.827  -6.314   1.549  0.00  0.00    -0.090 A 
ATOM      7  C   LIG    1        0.700  -5.532   2.686  0.00  0.00    +0.150 A 
ATOM      8  F   LIG    1        1.145  -5.993   3.875  0.00  0.00    -0.140 F 
ATOM      9  C   LIG    1        0.121  -4.279   2.603  0.00  0.00    -0.110 A 
ENDBRANCH   1   3
BRANCH   1  10
ATOM     10  C   LIG    1       -1.420  -2.054   0.003  0.00  0.00    +0.220 C 
ATOM     11  C   LIG    1       -2.839  -2.572  -0.237  0.00  0.00    +0.020 C 
BRANCH  10  12
ATOM     12  C   LIG    1       -1.430  -0.524   0.013  0.00  0.00    +0.030 C 
BRANCH  12  14
ATOM     13  C   LIG    1        0.799  -0.379  -1.106  0.00  0.00    +0.010 C 
ATOM     14  C   LIG    1        0.003  -0.005   0.146  0.00  0.00    -0.030 C 
ATOM     15  C   LIG    1       -0.018   1.517   0.301  0.00  0.00    +0.000 C 
ENDBRANCH  12  14
ENDBRANCH  10  12
ENDBRANCH   1  10
TORSDOF 4
ENDMDL
MODEL      600
REMARK  Name = ZINC000019942109
REMARK                            x       y       z     vdW  Elec       q    Type
REMARK                         _______ _______ _______ _____ _____    ______ ____
ROOT
ATOM      1  N   LIG    1       -0.932  -2.547   1.293  0.00  0.00    -0.740 N 
ATOM      2  H   LIG    1       -1.019  -1.997   2.087  0.00  0.00    +0.400 HD
ENDROOT
BRANCH   1   3
ATOM      3  C   LIG    1       -0.341  -3.811   1.380  0.00  0.00    +0.210 A 
ATOM      4  C   LIG    1       -0.211  -4.598   0.243  0.00  0.00    -0.040 A 
ATOM      5  C   LIG    1        0.372  -5.847   0.331  0.00  0.00    +0.030 A 
ATOM      6  C   LIG    1        0.828  -6.314   1.552  0.00  0.00    +0.030 A 
ATOM      7  C   LIG    1        0.700  -5.532   2.687  0.00  0.00    +0.030 A 
ATOM      8  F   LIG    1        1.398  -7.536   1.637  0.00  0.00    -0.150 F 
ATOM      9  C   LIG    1        0.122  -4.280   2.603  0.00  0.00    -0.040 A 
ENDBRANCH   1   3
BRANCH   1  10
ATOM     10  C   LIG    1       -1.420  -2.054   0.003  0.00  0.00    +0.220 C 
ATOM     11  C   LIG    1       -2.839  -2.572  -0.237  0.00  0.00    +0.010 C 
BRANCH  10  12
ATOM     12  C   LIG    1       -1.430  -0.524   0.013  0.00  0.00    +0.030 C 
BRANCH  12  14
ATOM     13  C   LIG    1        0.799  -0.379  -1.106  0.00  0.00    +0.010 C 
ATOM     14  C   LIG    1        0.003  -0.005   0.146  0.00  0.00    -0.030 C 
ATOM     15  C   LIG    1       -0.018   1.517   0.301  0.00  0.00    +0.000 C 
ENDBRANCH  12  14
ENDBRANCH  10  12
ENDBRANCH   1  10
TORSDOF 4
ENDMDL
MODEL      601
REMARK  Name = ZINC000019942106
REMARK                            x       y       z     vdW  Elec       q    Type
REMARK                         _______ _______ _______ _____ _____    ______ ____
ROOT
ATOM      1  N   LIG    1       -0.876  -2.426  -1.433  0.00  0.00    -0.740 N 
ATOM      2  H   LIG    1       -0.936  -1.804  -2.174  0.00  0.00    +0.400 HD
ENDROOT
BRANCH   1   3
ATOM      3  C   LIG    1       -0.277  -3.676  -1.616  0.00  0.00    +0.210 A 
ATOM      4  C   LIG    1       -0.196  -4.571  -0.556  0.00  0.00    -0.040 A 
ATOM      5  C   LIG    1        0.397  -5.805  -0.740  0.00  0.00    +0.030 A 
ATOM      6  C   LIG    1        0.911  -6.149  -1.978  0.00  0.00    +0.030 A 
ATOM      7  C   LIG    1        0.832  -5.259  -3.035  0.00  0.00    +0.030 A 
ATOM      8  F   LIG    1        1.492  -7.357  -2.155  0.00  0.00    -0.150 F 
ATOM      9  C   LIG    1        0.235  -4.026  -2.858  0.00  0.00    -0.040 A 
ENDBRANCH   1   3
BRANCH   1  10
ATOM     10  C   LIG    1       -1.416  -2.058  -0.121  0.00  0.00    +0.220 C 
ATOM     11  C   LIG    1       -2.841  -2.598   0.015  0.00  0.00    +0.010 C 
BRANCH  10  12
ATOM     12  C   LIG    1       -1.433  -0.534   0.013  0.00  0.00    +0.030 C 
BRANCH  12  14
ATOM     13  C   LIG    1       -0.019   1.526   0.010  0.00  0.00    +0.010 C 
ATOM     14  C   LIG    1        0.002  -0.004   0.002  0.00  0.00    -0.030 C 
ATOM     15  C   LIG    1        0.742  -0.511   1.242  0.00  0.00    +0.010 C 
ENDBRANCH  12  14
ENDBRANCH  10  12
ENDBRANCH   1  10
TORSDOF 4
ENDMDL
MODEL      602
REMARK  Name = ZINC000019944341
REMARK                            x       y       z     vdW  Elec       q    Type
REMARK                         _______ _______ _______ _____ _____    ______ ____
ROOT
ATOM      1  N   LIG    1       -0.876  -2.426  -1.433  0.00  0.00    -0.740 N 
ATOM      2  H   LIG    1       -0.936  -1.804  -2.174  0.00  0.00    +0.400 HD
ENDROOT
BRANCH   1   3
ATOM      3  C   LIG    1       -0.277  -3.676  -1.616  0.00  0.00    +0.190 A 
ATOM      4  C   LIG    1       -0.196  -4.571  -0.558  0.00  0.00    -0.050 A 
ATOM      5  C   LIG    1        0.397  -5.805  -0.742  0.00  0.00    +0.050 A 
ATOM      6  C   LIG    1        0.911  -6.151  -1.978  0.00  0.00    -0.020 A 
ATOM      7  C   LIG    1        0.834  -5.262  -3.035  0.00  0.00    +0.020 A 
ATOM      8  C   LIG    1        0.236  -4.028  -2.860  0.00  0.00    +0.010 A 
ATOM      9  F   LIG    1        0.160  -3.160  -3.893  0.00  0.00    -0.150 F 
ENDBRANCH   1   3
BRANCH   1  10
ATOM     10  C   LIG    1       -1.416  -2.058  -0.121  0.00  0.00    +0.230 C 
ATOM     11  C   LIG    1       -2.841  -2.598   0.015  0.00  0.00    +0.020 C 
BRANCH  10  12
ATOM     12  C   LIG    1       -1.433  -0.534   0.013  0.00  0.00    +0.030 C 
BRANCH  12  14
ATOM     13  C   LIG    1       -0.019   1.526   0.010  0.00  0.00    +0.010 C 
ATOM     14  C   LIG    1        0.002  -0.004   0.002  0.00  0.00    -0.030 C 
ATOM     15  C   LIG    1        0.742  -0.511   1.242  0.00  0.00    +0.010 C 
ENDBRANCH  12  14
ENDBRANCH  10  12
ENDBRANCH   1  10
TORSDOF 4
ENDMDL
MODEL      603
REMARK  Name = ZINC000019978804
REMARK                            x       y       z     vdW  Elec       q    Type
REMARK                         _______ _______ _______ _____ _____    ______ ____
ROOT
ATOM      1  N   LIG    1       -2.788  -2.566   0.141  0.00  0.00    -0.740 N 
ATOM      2  H   LIG    1       -3.498  -2.049  -0.270  0.00  0.00    +0.400 HD
ENDROOT
BRANCH   1   3
ATOM      3  C   LIG    1       -3.075  -3.795   0.742  0.00  0.00    +0.210 A 
ATOM      4  C   LIG    1       -2.059  -4.533   1.335  0.00  0.00    -0.040 A 
ATOM      5  C   LIG    1       -2.345  -5.747   1.929  0.00  0.00    +0.030 A 
ATOM      6  C   LIG    1       -3.643  -6.228   1.933  0.00  0.00    +0.030 A 
ATOM      7  C   LIG    1       -4.658  -5.494   1.343  0.00  0.00    +0.030 A 
ATOM      8  F   LIG    1       -3.921  -7.416   2.514  0.00  0.00    -0.150 F 
ATOM      9  C   LIG    1       -4.377  -4.277   0.753  0.00  0.00    -0.040 A 
ENDBRANCH   1   3
BRANCH   1  10
ATOM     10  C   LIG    1       -1.413  -2.059   0.130  0.00  0.00    +0.230 C 
ATOM     11  C   LIG    1       -0.660  -2.652  -1.062  0.00  0.00    +0.020 C 
BRANCH  10  12
ATOM     12  C   LIG    1       -1.433  -0.534   0.013  0.00  0.00    -0.020 C 
ATOM     13  C   LIG    1       -2.135  -0.131  -1.286  0.00  0.00    +0.020 C 
BRANCH  12  15
ATOM     14  C   LIG    1       -0.019   1.526   0.010  0.00  0.00    +0.010 C 
ATOM     15  C   LIG    1        0.002  -0.004   0.002  0.00  0.00    +0.010 C 
ENDBRANCH  12  15
ENDBRANCH  10  12
ENDBRANCH   1  10
TORSDOF 4
ENDMDL
MODEL      604
REMARK  Name = ZINC000019944343
REMARK                            x       y       z     vdW  Elec       q    Type
REMARK                         _______ _______ _______ _____ _____    ______ ____
ROOT
ATOM      1  N   LIG    1       -0.932  -2.547   1.293  0.00  0.00    -0.740 N 
ATOM      2  H   LIG    1       -1.019  -1.997   2.087  0.00  0.00    +0.400 HD
ENDROOT
BRANCH   1   3
ATOM      3  C   LIG    1       -0.341  -3.812   1.380  0.00  0.00    +0.190 A 
ATOM      4  C   LIG    1       -0.211  -4.598   0.244  0.00  0.00    -0.050 A 
ATOM      5  C   LIG    1        0.374  -5.847   0.333  0.00  0.00    +0.050 A 
ATOM      6  C   LIG    1        0.829  -6.315   1.552  0.00  0.00    -0.020 A 
ATOM      7  C   LIG    1        0.701  -5.535   2.687  0.00  0.00    +0.020 A 
ATOM      8  C   LIG    1        0.123  -4.282   2.605  0.00  0.00    +0.010 A 
ATOM      9  F   LIG    1       -0.001  -3.519   3.713  0.00  0.00    -0.150 F 
ENDBRANCH   1   3
BRANCH   1  10
ATOM     10  C   LIG    1       -1.420  -2.054   0.003  0.00  0.00    +0.230 C 
ATOM     11  C   LIG    1       -2.839  -2.572  -0.237  0.00  0.00    +0.020 C 
BRANCH  10  12
ATOM     12  C   LIG    1       -1.430  -0.524   0.013  0.00  0.00    +0.030 C 
BRANCH  12  14
ATOM     13  C   LIG    1        0.799  -0.379  -1.106  0.00  0.00    +0.000 C 
ATOM     14  C   LIG    1        0.003  -0.005   0.146  0.00  0.00    -0.030 C 
ATOM     15  C   LIG    1       -0.018   1.517   0.301  0.00  0.00    +0.010 C 
ENDBRANCH  12  14
ENDBRANCH  10  12
ENDBRANCH   1  10
TORSDOF 4
ENDMDL
MODEL      605
REMARK  Name = ZINC000020018920
REMARK                            x       y       z     vdW  Elec       q    Type
REMARK                         _______ _______ _______ _____ _____    ______ ____
ROOT
ATOM      1  N   LIG    1        1.316  -2.496  -2.534  0.00  0.00    -0.740 N 
ATOM      2  H   LIG    1        1.412  -1.908  -3.299  0.00  0.00    +0.400 HD
ENDROOT
BRANCH   1   3
ATOM      3  C   LIG    1        1.832  -3.795  -2.581  0.00  0.00    +0.190 A 
ATOM      4  C   LIG    1        1.690  -4.639  -1.489  0.00  0.00    -0.050 A 
ATOM      5  C   LIG    1        2.201  -5.923  -1.539  0.00  0.00    +0.050 A 
ATOM      6  C   LIG    1        2.853  -6.366  -2.674  0.00  0.00    -0.020 A 
ATOM      7  C   LIG    1        2.997  -5.528  -3.765  0.00  0.00    +0.020 A 
ATOM      8  C   LIG    1        2.483  -4.245  -3.725  0.00  0.00    +0.010 A 
ATOM      9  F   LIG    1        2.624  -3.426  -4.790  0.00  0.00    -0.150 F 
ENDBRANCH   1   3
BRANCH   1  10
ATOM     10  C   LIG    1        0.630  -2.023  -1.329  0.00  0.00    +0.230 C 
ATOM     11  C   LIG    1       -0.839  -2.448  -1.378  0.00  0.00    +0.020 C 
BRANCH  10  12
ATOM     12  C   LIG    1        0.718  -0.497  -1.257  0.00  0.00    -0.030 C 
ATOM     13  C   LIG    1        2.187  -0.073  -1.207  0.00  0.00    +0.030 C 
BRANCH  12  15
ATOM     14  C   LIG    1       -0.019   1.526   0.010  0.00  0.00    +0.020 C 
ATOM     15  C   LIG    1        0.002  -0.004   0.002  0.00  0.00    +0.010 C 
ENDBRANCH  12  15
ENDBRANCH  10  12
ENDBRANCH   1  10
TORSDOF 4
ENDMDL
MODEL      606
REMARK  Name = ZINC000019978796
REMARK                            x       y       z     vdW  Elec       q    Type
REMARK                         _______ _______ _______ _____ _____    ______ ____
ROOT
ATOM      1  N   LIG    1       -2.788  -2.566   0.141  0.00  0.00    -0.740 N 
ATOM      2  H   LIG    1       -3.513  -1.995   0.438  0.00  0.00    +0.400 HD
ENDROOT
BRANCH   1   3
ATOM      3  C   LIG    1       -3.054  -3.873  -0.278  0.00  0.00    +0.210 A 
ATOM      4  C   LIG    1       -2.015  -4.694  -0.699  0.00  0.00    -0.040 A 
ATOM      5  C   LIG    1       -2.280  -5.985  -1.112  0.00  0.00    +0.030 A 
ATOM      6  C   LIG    1       -3.580  -6.461  -1.107  0.00  0.00    +0.030 A 
ATOM      7  C   LIG    1       -4.617  -5.645  -0.688  0.00  0.00    +0.030 A 
ATOM      8  F   LIG    1       -3.837  -7.724  -1.512  0.00  0.00    -0.150 F 
ATOM      9  C   LIG    1       -4.356  -4.355  -0.269  0.00  0.00    -0.040 A 
ENDBRANCH   1   3
BRANCH   1  10
ATOM     10  C   LIG    1       -1.413  -2.059   0.130  0.00  0.00    +0.230 C 
ATOM     11  C   LIG    1       -0.711  -2.461   1.429  0.00  0.00    +0.020 C 
BRANCH  10  12
ATOM     12  C   LIG    1       -1.433  -0.534   0.013  0.00  0.00    -0.030 C 
ATOM     13  C   LIG    1       -2.135  -0.131  -1.286  0.00  0.00    +0.030 C 
BRANCH  12  15
ATOM     14  C   LIG    1       -0.019   1.526   0.010  0.00  0.00    +0.020 C 
ATOM     15  C   LIG    1        0.002  -0.004   0.002  0.00  0.00    +0.010 C 
ENDBRANCH  12  15
ENDBRANCH  10  12
ENDBRANCH   1  10
TORSDOF 4
ENDMDL
MODEL      607
REMARK  Name = ZINC000020085424
REMARK                            x       y       z     vdW  Elec       q    Type
REMARK                         _______ _______ _______ _____ _____    ______ ____
ROOT
ATOM      1  N   LIG    1        1.316  -2.496  -2.534  0.00  0.00    -0.740 N 
ATOM      2  H   LIG    1        1.412  -1.908  -3.299  0.00  0.00    +0.400 HD
ENDROOT
BRANCH   1   3
ATOM      3  C   LIG    1        1.831  -3.793  -2.581  0.00  0.00    +0.220 A 
ATOM      4  C   LIG    1        1.690  -4.639  -1.488  0.00  0.00    -0.080 A 
ATOM      5  C   LIG    1        2.200  -5.921  -1.538  0.00  0.00    +0.050 A 
ATOM      6  C   LIG    1        2.852  -6.363  -2.675  0.00  0.00    -0.060 A 
ATOM      7  C   LIG    1        2.995  -5.524  -3.764  0.00  0.00    +0.050 A 
ATOM      8  C   LIG    1        2.482  -4.243  -3.723  0.00  0.00    -0.080 A 
ENDBRANCH   1   3
BRANCH   1   9
ATOM      9  C   LIG    1        0.630  -2.023  -1.329  0.00  0.00    +0.230 C 
ATOM     10  C   LIG    1       -0.839  -2.448  -1.378  0.00  0.00    +0.020 C 
BRANCH   9  11
ATOM     11  C   LIG    1        0.718  -0.497  -1.257  0.00  0.00    -0.030 C 
ATOM     12  C   LIG    1        2.187  -0.073  -1.207  0.00  0.00    +0.020 C 
BRANCH  11  14
ATOM     13  C   LIG    1       -0.019   1.526   0.010  0.00  0.00    +0.020 C 
ATOM     14  C   LIG    1        0.002  -0.004   0.002  0.00  0.00    +0.010 C 
ENDBRANCH  11  14
ENDBRANCH   9  11
ENDBRANCH   1   9
TORSDOF 4
ENDMDL
MODEL      608
REMARK  Name = ZINC000020550982
REMARK                            x       y       z     vdW  Elec       q    Type
REMARK                         _______ _______ _______ _____ _____    ______ ____
ROOT
ATOM      1  N   LIG    1        1.316  -2.496  -2.534  0.00  0.00    -0.740 N 
ATOM      2  H   LIG    1        1.412  -1.908  -3.299  0.00  0.00    +0.400 HD
ENDROOT
BRANCH   1   3
ATOM      3  C   LIG    1        1.831  -3.793  -2.581  0.00  0.00    +0.220 A 
ATOM      4  C   LIG    1        1.690  -4.638  -1.488  0.00  0.00    -0.080 A 
ATOM      5  C   LIG    1        2.200  -5.921  -1.538  0.00  0.00    +0.040 A 
ATOM      6  C   LIG    1        2.852  -6.364  -2.675  0.00  0.00    -0.060 A 
ATOM      7  C   LIG    1        2.995  -5.524  -3.765  0.00  0.00    +0.050 A 
ATOM      8  C   LIG    1        2.482  -4.243  -3.723  0.00  0.00    -0.170 A 
ATOM      9  C   LIG    1        2.639  -3.329  -4.911  0.00  0.00    +0.080 C 
ENDBRANCH   1   3
BRANCH   1  10
ATOM     10  C   LIG    1        0.630  -2.023  -1.329  0.00  0.00    +0.230 C 
ATOM     11  C   LIG    1       -0.839  -2.448  -1.378  0.00  0.00    +0.020 C 
BRANCH  10  12
ATOM     12  C   LIG    1        0.718  -0.497  -1.257  0.00  0.00    -0.030 C 
ATOM     13  C   LIG    1        2.187  -0.073  -1.207  0.00  0.00    +0.010 C 
BRANCH  12  15
ATOM     14  C   LIG    1       -0.019   1.526   0.010  0.00  0.00    +0.020 C 
ATOM     15  C   LIG    1        0.002  -0.004   0.002  0.00  0.00    +0.010 C 
ENDBRANCH  12  15
ENDBRANCH  10  12
ENDBRANCH   1  10
TORSDOF 4
ENDMDL
MODEL      609
REMARK  Name = ZINC000020471728
REMARK                            x       y       z     vdW  Elec       q    Type
REMARK                         _______ _______ _______ _____ _____    ______ ____
ROOT
ATOM      1  C   LIG    1       -0.018   1.503   0.010  0.00  0.00    +0.090 C 
ATOM      2  C   LIG    1        0.002  -0.004   0.002  0.00  0.00    -0.050 A 
ATOM      3  C   LIG    1        0.006  -0.688  -1.200  0.00  0.00    -0.020 A 
ATOM      4  C   LIG    1        0.025  -2.071  -1.212  0.00  0.00    +0.030 A 
ATOM      5  C   LIG    1        0.040  -2.774  -0.022  0.00  0.00    +0.010 A 
ATOM      6  C   LIG    1        0.037  -2.088   1.188  0.00  0.00    +0.200 A 
ATOM      7  F   LIG    1        0.059  -4.125  -0.035  0.00  0.00    -0.150 F 
ATOM      8  C   LIG    1        0.023  -0.700   1.196  0.00  0.00    -0.050 A 
ENDROOT
BRANCH   6   9
ATOM      9  N   LIG    1        0.053  -2.795   2.394  0.00  0.00    -0.740 N 
ATOM     10  H   LIG    1        0.066  -3.765   2.388  0.00  0.00    +0.400 HD
BRANCH   9  11
ATOM     11  C   LIG    1        0.050  -2.071   3.668  0.00  0.00    +0.230 C 
ATOM     12  C   LIG    1        1.483  -1.690   4.042  0.00  0.00    +0.020 C 
BRANCH  11  13
ATOM     13  C   LIG    1       -0.542  -2.964   4.761  0.00  0.00    -0.020 C 
ATOM     14  C   LIG    1       -0.661  -2.168   6.061  0.00  0.00    +0.030 C 
ATOM     15  C   LIG    1        0.372  -4.171   4.983  0.00  0.00    +0.020 C 
ENDBRANCH  11  13
ENDBRANCH   9  11
ENDBRANCH   6   9
TORSDOF 3
ENDMDL
MODEL      610
REMARK  Name = ZINC000020471729
REMARK                            x       y       z     vdW  Elec       q    Type
REMARK                         _______ _______ _______ _____ _____    ______ ____
ROOT
ATOM      1  C   LIG    1       -0.018   1.503   0.010  0.00  0.00    +0.090 C 
ATOM      2  C   LIG    1        0.002  -0.004   0.002  0.00  0.00    -0.050 A 
ATOM      3  C   LIG    1        0.006  -0.688  -1.200  0.00  0.00    -0.020 A 
ATOM      4  C   LIG    1        0.025  -2.071  -1.212  0.00  0.00    +0.030 A 
ATOM      5  C   LIG    1        0.040  -2.774  -0.022  0.00  0.00    +0.010 A 
ATOM      6  C   LIG    1        0.037  -2.088   1.188  0.00  0.00    +0.200 A 
ATOM      7  F   LIG    1        0.059  -4.125  -0.035  0.00  0.00    -0.150 F 
ATOM      8  C   LIG    1        0.023  -0.700   1.196  0.00  0.00    -0.050 A 
ENDROOT
BRANCH   6   9
ATOM      9  N   LIG    1        0.053  -2.795   2.394  0.00  0.00    -0.740 N 
ATOM     10  H   LIG    1        0.066  -3.765   2.388  0.00  0.00    +0.400 HD
BRANCH   9  11
ATOM     11  C   LIG    1        0.050  -2.071   3.668  0.00  0.00    +0.230 C 
ATOM     12  C   LIG    1       -1.390  -1.730   4.057  0.00  0.00    +0.020 C 
BRANCH  11  13
ATOM     13  C   LIG    1        0.677  -2.947   4.754  0.00  0.00    -0.030 C 
ATOM     14  C   LIG    1        0.673  -2.192   6.084  0.00  0.00    +0.030 C 
ATOM     15  C   LIG    1        2.117  -3.289   4.365  0.00  0.00    +0.030 C 
ENDBRANCH  11  13
ENDBRANCH   9  11
ENDBRANCH   6   9
TORSDOF 3
ENDMDL
MODEL      611
REMARK  Name = ZINC000063361055
REMARK                            x       y       z     vdW  Elec       q    Type
REMARK                         _______ _______ _______ _____ _____    ______ ____
ROOT
ATOM      1  C   LIG    1       -0.018   1.503   0.010  0.00  0.00    +0.120 C 
ATOM      2  C   LIG    1        0.002  -0.004   0.002  0.00  0.00    -0.080 A 
ATOM      3  C   LIG    1        0.006  -0.689  -1.198  0.00  0.00    +0.090 A 
ATOM      4  C   LIG    1        0.024  -2.071  -1.206  0.00  0.00    -0.180 A 
ATOM      5  C   LIG    1        0.040  -2.769  -0.013  0.00  0.00    +0.090 A 
ATOM      6  C   LIG    1        0.036  -2.086   1.188  0.00  0.00    +0.040 A 
ATOM      7  C   LIG    1        0.023  -0.702   1.196  0.00  0.00    -0.010 A 
ATOM      8 CL   LIG    1        0.018   0.157   2.705  0.00  0.00    -0.050 Cl
ENDROOT
BRANCH   4   9
ATOM      9  C   LIG    1        0.028  -2.817  -2.516  0.00  0.00    +0.510 C 
ATOM     10  F   LIG    1       -0.646  -2.064  -3.483  0.00  0.00    -0.170 F 
ATOM     11  F   LIG    1       -0.614  -4.049  -2.353  0.00  0.00    -0.170 F 
ATOM     12  F   LIG    1        1.349  -3.030  -2.927  0.00  0.00    -0.170 F 
ENDBRANCH   4   9
TORSDOF 1
ENDMDL
MODEL      612
REMARK  Name = ZINC000021011984
REMARK                            x       y       z     vdW  Elec       q    Type
REMARK                         _______ _______ _______ _____ _____    ______ ____
ROOT
ATOM      1  N   LIG    1        1.581  -2.519   2.358  0.00  0.00    -0.740 N 
ATOM      2  H   LIG    1        2.186  -1.931   2.835  0.00  0.00    +0.400 HD
ENDROOT
BRANCH   1   3
ATOM      3  C   LIG    1        1.384  -3.829   2.801  0.00  0.00    +0.210 A 
ATOM      4  C   LIG    1        0.521  -4.674   2.115  0.00  0.00    -0.080 A 
ATOM      5  C   LIG    1        0.330  -5.969   2.557  0.00  0.00    +0.050 A 
ATOM      6  C   LIG    1        0.995  -6.423   3.680  0.00  0.00    -0.150 A 
ATOM      7  C   LIG    1        1.854  -5.584   4.366  0.00  0.00    +0.050 A 
ATOM      8  C   LIG    1        0.783  -7.837   4.159  0.00  0.00    +0.070 C 
ATOM      9  C   LIG    1        2.055  -4.290   3.927  0.00  0.00    -0.070 A 
ENDBRANCH   1   3
BRANCH   1  10
ATOM     10  C   LIG    1        0.872  -2.034   1.171  0.00  0.00    +0.230 C 
ATOM     11  C   LIG    1        1.656  -2.421  -0.085  0.00  0.00    +0.020 C 
BRANCH  10  12
ATOM     12  C   LIG    1        0.742  -0.511   1.242  0.00  0.00    -0.030 C 
ATOM     13  C   LIG    1       -0.042  -0.124   2.497  0.00  0.00    +0.020 C 
BRANCH  12  15
ATOM     14  C   LIG    1       -0.019   1.526   0.010  0.00  0.00    +0.020 C 
ATOM     15  C   LIG    1        0.002  -0.004   0.002  0.00  0.00    +0.010 C 
ENDBRANCH  12  15
ENDBRANCH  10  12
ENDBRANCH   1  10
TORSDOF 4
ENDMDL
MODEL      613
REMARK  Name = ZINC000021042795
REMARK                            x       y       z     vdW  Elec       q    Type
REMARK                         _______ _______ _______ _____ _____    ______ ____
ROOT
ATOM      1  C   LIG    1        0.474  -0.497   3.705  0.00  0.00    +0.210 A 
ATOM      2  C   LIG    1        1.667  -1.198   3.822  0.00  0.00    -0.080 A 
ATOM      3  C   LIG    1        2.141  -1.548   5.071  0.00  0.00    +0.050 A 
ATOM      4  C   LIG    1        1.428  -1.202   6.205  0.00  0.00    -0.140 A 
ATOM      5  C   LIG    1        0.240  -0.504   6.092  0.00  0.00    +0.050 A 
ATOM      6  C   LIG    1       -0.237  -0.146   4.847  0.00  0.00    -0.070 A 
ENDROOT
BRANCH   4   7
ATOM      7  C   LIG    1        1.949  -1.587   7.566  0.00  0.00    +0.020 C 
ATOM      8  C   LIG    1        0.926  -2.481   8.269  0.00  0.00    +0.020 C 
ATOM      9  C   LIG    1        2.179  -0.324   8.399  0.00  0.00    +0.020 C 
ENDBRANCH   4   7
BRANCH   1  10
ATOM     10  N   LIG    1       -0.008  -0.140   2.444  0.00  0.00    -0.750 N 
ATOM     11  H   LIG    1       -0.840   0.353   2.364  0.00  0.00    +0.400 HD
BRANCH  10  12
ATOM     12  C   LIG    1        0.742  -0.511   1.242  0.00  0.00    +0.250 C 
BRANCH  12  14
ATOM     13  C   LIG    1       -0.019   1.526   0.010  0.00  0.00    +0.020 C 
ATOM     14  C   LIG    1        0.002  -0.004   0.002  0.00  0.00    -0.030 C 
ATOM     15  C   LIG    1        0.718  -0.497  -1.257  0.00  0.00    +0.030 C 
ENDBRANCH  12  14
ENDBRANCH  10  12
ENDBRANCH   1  10
TORSDOF 4
ENDMDL
MODEL      614
REMARK  Name = ZINC000021011986
REMARK                            x       y       z     vdW  Elec       q    Type
REMARK                         _______ _______ _______ _____ _____    ______ ____
ROOT
ATOM      1  N   LIG    1        1.581  -2.519   2.358  0.00  0.00    -0.740 N 
ATOM      2  H   LIG    1        1.567  -1.999   3.177  0.00  0.00    +0.400 HD
ENDROOT
BRANCH   1   3
ATOM      3  C   LIG    1        2.275  -3.730   2.310  0.00  0.00    +0.210 A 
ATOM      4  C   LIG    1        2.300  -4.473   1.136  0.00  0.00    -0.080 A 
ATOM      5  C   LIG    1        2.988  -5.669   1.092  0.00  0.00    +0.050 A 
ATOM      6  C   LIG    1        3.651  -6.128   2.215  0.00  0.00    -0.150 A 
ATOM      7  C   LIG    1        3.629  -5.392   3.385  0.00  0.00    +0.050 A 
ATOM      8  C   LIG    1        4.401  -7.435   2.164  0.00  0.00    +0.070 C 
ATOM      9  C   LIG    1        2.947  -4.192   3.434  0.00  0.00    -0.070 A 
ENDBRANCH   1   3
BRANCH   1  10
ATOM     10  C   LIG    1        0.872  -2.034   1.171  0.00  0.00    +0.230 C 
ATOM     11  C   LIG    1       -0.522  -2.663   1.116  0.00  0.00    +0.020 C 
BRANCH  10  12
ATOM     12  C   LIG    1        0.742  -0.511   1.242  0.00  0.00    -0.020 C 
ATOM     13  C   LIG    1       -0.042  -0.124   2.497  0.00  0.00    +0.020 C 
BRANCH  12  15
ATOM     14  C   LIG    1       -0.019   1.526   0.010  0.00  0.00    +0.020 C 
ATOM     15  C   LIG    1        0.002  -0.004   0.002  0.00  0.00    +0.010 C 
ENDBRANCH  12  15
ENDBRANCH  10  12
ENDBRANCH   1  10
TORSDOF 4
ENDMDL
MODEL      615
REMARK  Name = ZINC000065337475
REMARK                            x       y       z     vdW  Elec       q    Type
REMARK                         _______ _______ _______ _____ _____    ______ ____
ROOT
ATOM      1  C   LIG    1       -0.018   1.503   0.010  0.00  0.00    +0.100 C 
ATOM      2  C   LIG    1        0.002  -0.004   0.002  0.00  0.00    -0.070 A 
ATOM      3  C   LIG    1        0.006  -0.685  -1.213  0.00  0.00    +0.030 A 
ATOM      4  C   LIG    1        0.024  -2.045  -1.256  0.00  0.00    -0.050 A 
ATOM      5  C   LIG    1        0.040  -2.781  -0.059  0.00  0.00    +0.140 A 
ATOM      6  N   LIG    1        0.059  -4.118  -0.070  0.00  0.00    -0.460 NA
ATOM      7  C   LIG    1        0.074  -4.809   1.045  0.00  0.00    +0.200 A 
ATOM      8  C   LIG    1        0.072  -4.187   2.293  0.00  0.00    -0.010 A 
ATOM      9  C   LIG    1        0.053  -2.824   2.375  0.00  0.00    +0.110 A 
ATOM     10 CL   LIG    1        0.099  -6.543   0.964  0.00  0.00    -0.030 Cl
ATOM     11  C   LIG    1        0.037  -2.086   1.176  0.00  0.00    -0.090 A 
ATOM     12  C   LIG    1        0.027  -2.760  -2.583  0.00  0.00    +0.110 C 
ATOM     13  C   LIG    1        0.022  -0.682   1.183  0.00  0.00    +0.020 A 
ENDROOT
TORSDOF 0
ENDMDL
MODEL      616
REMARK  Name = ZINC000065364443
REMARK                            x       y       z     vdW  Elec       q    Type
REMARK                         _______ _______ _______ _____ _____    ______ ____
ROOT
ATOM      1  C   LIG    1       -0.018   1.503   0.010  0.00  0.00    +0.150 C 
ATOM      2  C   LIG    1        0.002  -0.004   0.002  0.00  0.00    +0.220 A 
ATOM      3  C   LIG    1       -1.171  -0.668   0.004  0.00  0.00    -0.190 A 
ATOM      4  C   LIG    1       -1.186  -2.083  -0.004  0.00  0.00    +0.180 A 
ATOM      5  C   LIG    1        0.110  -2.784  -0.015  0.00  0.00    -0.120 A 
ATOM      6  C   LIG    1        0.183  -4.177  -0.023  0.00  0.00    +0.130 A 
ATOM      7  C   LIG    1        1.416  -4.792  -0.034  0.00  0.00    -0.010 A 
ATOM      8  C   LIG    1        2.579  -4.035  -0.035  0.00  0.00    +0.090 A 
ATOM      9  C   LIG    1        2.522  -2.658  -0.025  0.00  0.00    -0.030 A 
ATOM     10  C   LIG    1        1.288  -2.017  -0.016  0.00  0.00    +0.180 A 
ATOM     11  S   LIG    1       -2.661  -2.952  -0.002  0.00  0.00    -0.560 S 
ATOM     12  C   LIG    1       -2.469   0.097   0.015  0.00  0.00    +0.130 C 
ATOM     13  N   LIG    1        1.201  -0.641  -0.013  0.00  0.00    -0.580 N 
ATOM     14  H   LIG    1        2.016  -0.115  -0.018  0.00  0.00    +0.420 HD
ENDROOT
TORSDOF 0
ENDMDL
MODEL      617
REMARK  Name = ZINC000065339927
REMARK                            x       y       z     vdW  Elec       q    Type
REMARK                         _______ _______ _______ _____ _____    ______ ____
ROOT
ATOM      1  C   LIG    1       -0.018   1.503   0.010  0.00  0.00    +0.090 C 
ATOM      2  C   LIG    1        0.002  -0.004   0.002  0.00  0.00    -0.080 A 
ATOM      3  C   LIG    1        0.006  -0.686  -1.198  0.00  0.00    +0.000 A 
ATOM      4  C   LIG    1        0.025  -2.080  -1.204  0.00  0.00    -0.040 A 
ATOM      5  C   LIG    1        0.040  -2.776   0.003  0.00  0.00    +0.000 A 
ATOM      6  C   LIG    1        0.036  -2.084   1.197  0.00  0.00    -0.080 A 
ATOM      7  C   LIG    1        0.052  -2.836   2.502  0.00  0.00    +0.090 C 
ATOM      8  C   LIG    1        0.023  -0.701   1.197  0.00  0.00    +0.000 A 
ENDROOT
BRANCH   4   9
ATOM      9  C   LIG    1        0.029  -2.819  -2.490  0.00  0.00    -0.050 A 
ATOM     10  C   LIG    1        0.020  -2.120  -3.697  0.00  0.00    +0.040 A 
ATOM     11  C   LIG    1        0.025  -2.810  -4.891  0.00  0.00    -0.010 A 
ATOM     12  C   LIG    1        0.038  -4.198  -4.893  0.00  0.00    +0.110 A 
ATOM     13  C   LIG    1        0.047  -4.896  -3.692  0.00  0.00    -0.010 A 
ATOM     14  C   LIG    1        0.048  -4.212  -2.495  0.00  0.00    +0.040 A 
BRANCH  12  15
ATOM     15  O   LIG    1        0.042  -4.875  -6.071  0.00  0.00    -0.500 OA
ATOM     16  H   LIG    1        0.927  -5.062  -6.413  0.00  0.00    +0.390 HD
ENDBRANCH  12  15
ENDBRANCH   4   9
TORSDOF 2
ENDMDL
MODEL      618
REMARK  Name = ZINC000065337080
REMARK                            x       y       z     vdW  Elec       q    Type
REMARK                         _______ _______ _______ _____ _____    ______ ____
ROOT
ATOM      1  C   LIG    1       -0.018   1.503   0.010  0.00  0.00    +0.090 C 
ATOM      2  C   LIG    1        0.002  -0.004   0.002  0.00  0.00    -0.070 A 
ATOM      3  C   LIG    1        0.006  -0.688  -1.199  0.00  0.00    +0.010 A 
ATOM      4  C   LIG    1        0.025  -2.072  -1.206  0.00  0.00    -0.030 A 
ATOM      5  C   LIG    1        0.040  -2.769  -0.011  0.00  0.00    +0.020 A 
ATOM      6  C   LIG    1        0.036  -2.084   1.189  0.00  0.00    -0.050 A 
ATOM      7 CL   LIG    1        0.030  -2.932  -2.714  0.00  0.00    -0.070 Cl
ATOM      8  C   LIG    1        0.023  -0.702   1.196  0.00  0.00    +0.020 A 
ENDROOT
BRANCH   6   9
ATOM      9  C   LIG    1        0.052  -2.843   2.490  0.00  0.00    -0.030 C 
ATOM     10  C   LIG    1       -1.198  -2.494   3.300  0.00  0.00    +0.040 C 
ATOM     11  C   LIG    1        1.300  -2.461   3.288  0.00  0.00    +0.040 C 
ATOM     12  C   LIG    1        0.071  -4.346   2.204  0.00  0.00    +0.030 C 
ENDBRANCH   6   9
TORSDOF 1
ENDMDL
MODEL      619
REMARK  Name = ZINC000021519084
REMARK                            x       y       z     vdW  Elec       q    Type
REMARK                         _______ _______ _______ _____ _____    ______ ____
ROOT
ATOM      1  N   LIG    1        1.316  -2.496  -2.534  0.00  0.00    -0.740 N 
ATOM      2  H   LIG    1        2.019  -1.960  -2.934  0.00  0.00    +0.400 HD
ENDROOT
BRANCH   1   3
ATOM      3  C   LIG    1        0.958  -3.718  -3.107  0.00  0.00    +0.220 A 
ATOM      4  C   LIG    1       -0.052  -4.484  -2.539  0.00  0.00    -0.090 A 
ATOM      5  C   LIG    1       -0.404  -5.692  -3.109  0.00  0.00    +0.050 A 
ATOM      6  C   LIG    1        0.248  -6.139  -4.244  0.00  0.00    -0.060 A 
ATOM      7  C   LIG    1        1.254  -5.379  -4.812  0.00  0.00    -0.040 A 
ATOM      8  C   LIG    1        1.962  -5.870  -6.048  0.00  0.00    +0.080 C 
ATOM      9  C   LIG    1        1.607  -4.168  -4.250  0.00  0.00    -0.080 A 
ENDBRANCH   1   3
BRANCH   1  10
ATOM     10  C   LIG    1        0.630  -2.023  -1.329  0.00  0.00    +0.230 C 
ATOM     11  C   LIG    1        1.295  -2.631  -0.092  0.00  0.00    +0.020 C 
BRANCH  10  12
ATOM     12  C   LIG    1        0.718  -0.497  -1.257  0.00  0.00    -0.020 C 
ATOM     13  C   LIG    1        2.187  -0.073  -1.207  0.00  0.00    +0.020 C 
BRANCH  12  15
ATOM     14  C   LIG    1       -0.019   1.526   0.010  0.00  0.00    +0.020 C 
ATOM     15  C   LIG    1        0.002  -0.004   0.002  0.00  0.00    +0.010 C 
ENDBRANCH  12  15
ENDBRANCH  10  12
ENDBRANCH   1  10
TORSDOF 4
ENDMDL
MODEL      620
REMARK  Name = ZINC000021519082
REMARK                            x       y       z     vdW  Elec       q    Type
REMARK                         _______ _______ _______ _____ _____    ______ ____
ROOT
ATOM      1  N   LIG    1        1.316  -2.496  -2.534  0.00  0.00    -0.740 N 
ATOM      2  H   LIG    1        1.412  -1.908  -3.299  0.00  0.00    +0.400 HD
ENDROOT
BRANCH   1   3
ATOM      3  C   LIG    1        1.831  -3.793  -2.581  0.00  0.00    +0.220 A 
ATOM      4  C   LIG    1        1.690  -4.638  -1.488  0.00  0.00    -0.090 A 
ATOM      5  C   LIG    1        2.200  -5.921  -1.538  0.00  0.00    +0.050 A 
ATOM      6  C   LIG    1        2.852  -6.364  -2.675  0.00  0.00    -0.060 A 
ATOM      7  C   LIG    1        2.995  -5.524  -3.765  0.00  0.00    -0.040 A 
ATOM      8  C   LIG    1        3.706  -6.011  -5.001  0.00  0.00    +0.080 C 
ATOM      9  C   LIG    1        2.482  -4.243  -3.723  0.00  0.00    -0.080 A 
ENDBRANCH   1   3
BRANCH   1  10
ATOM     10  C   LIG    1        0.630  -2.023  -1.329  0.00  0.00    +0.230 C 
ATOM     11  C   LIG    1       -0.839  -2.448  -1.378  0.00  0.00    +0.020 C 
BRANCH  10  12
ATOM     12  C   LIG    1        0.718  -0.497  -1.257  0.00  0.00    -0.030 C 
ATOM     13  C   LIG    1        2.187  -0.073  -1.207  0.00  0.00    +0.020 C 
BRANCH  12  15
ATOM     14  C   LIG    1       -0.019   1.526   0.010  0.00  0.00    +0.020 C 
ATOM     15  C   LIG    1        0.002  -0.004   0.002  0.00  0.00    +0.010 C 
ENDBRANCH  12  15
ENDBRANCH  10  12
ENDBRANCH   1  10
TORSDOF 4
ENDMDL
MODEL      621
REMARK  Name = ZINC000066055322
REMARK                            x       y       z     vdW  Elec       q    Type
REMARK                         _______ _______ _______ _____ _____    ______ ____
ROOT
ATOM      1  C   LIG    1       -0.019   1.526   0.010  0.00  0.00    +0.040 C 
ATOM      2  C   LIG    1        0.002  -0.004   0.002  0.00  0.00    -0.060 C 
ATOM      3  C   LIG    1       -1.433  -0.534   0.013  0.00  0.00    +0.030 C 
ATOM      4  C   LIG    1       -1.413  -2.063   0.004  0.00  0.00    -0.010 C 
ATOM      5  C   LIG    1       -0.673  -2.570   1.244  0.00  0.00    +0.030 C 
ATOM      6  C   LIG    1        0.763  -2.041   1.233  0.00  0.00    +0.040 C 
ATOM      7  C   LIG    1        1.479  -2.534  -0.026  0.00  0.00    +0.040 C 
ATOM      8  C   LIG    1        0.739  -2.027  -1.265  0.00  0.00    -0.060 C 
ATOM      9  C   LIG    1        1.455  -2.521  -2.524  0.00  0.00    +0.040 C 
ATOM     10 CL   LIG    1        1.635  -2.638   2.694  0.00  0.00    -0.190 Cl
ATOM     11  C   LIG    1       -0.696  -2.557  -1.254  0.00  0.00    +0.030 C 
ATOM     12  C   LIG    1        0.718  -0.497  -1.257  0.00  0.00    +0.040 C 
ATOM     13  C   LIG    1        0.742  -0.511   1.242  0.00  0.00    +0.040 C 
ENDROOT
TORSDOF 0
ENDMDL
MODEL      622
REMARK  Name = ZINC000021801071
REMARK                            x       y       z     vdW  Elec       q    Type
REMARK                         _______ _______ _______ _____ _____    ______ ____
ROOT
ATOM      1  N   LIG    1        1.316  -2.496  -2.534  0.00  0.00    -0.740 N 
ATOM      2  H   LIG    1        2.019  -1.960  -2.934  0.00  0.00    +0.400 HD
ENDROOT
BRANCH   1   3
ATOM      3  C   LIG    1        0.958  -3.718  -3.107  0.00  0.00    +0.250 A 
ATOM      4  C   LIG    1       -0.052  -4.484  -2.539  0.00  0.00    -0.080 A 
ATOM      5  C   LIG    1       -0.404  -5.692  -3.107  0.00  0.00    +0.090 A 
ATOM      6  C   LIG    1        0.246  -6.141  -4.242  0.00  0.00    -0.090 A 
ATOM      7  C   LIG    1        1.254  -5.381  -4.811  0.00  0.00    +0.150 A 
ATOM      8  F   LIG    1        1.889  -5.822  -5.920  0.00  0.00    -0.140 F 
ATOM      9  C   LIG    1        1.607  -4.167  -4.250  0.00  0.00    -0.110 A 
ENDBRANCH   1   3
BRANCH   1  10
ATOM     10  C   LIG    1        0.630  -2.023  -1.329  0.00  0.00    +0.230 C 
ATOM     11  C   LIG    1        1.295  -2.631  -0.092  0.00  0.00    +0.020 C 
BRANCH  10  12
ATOM     12  C   LIG    1        0.718  -0.497  -1.257  0.00  0.00    -0.020 C 
ATOM     13  C   LIG    1        2.187  -0.073  -1.207  0.00  0.00    +0.020 C 
BRANCH  12  15
ATOM     14  C   LIG    1       -0.019   1.526   0.010  0.00  0.00    +0.010 C 
ATOM     15  C   LIG    1        0.002  -0.004   0.002  0.00  0.00    +0.010 C 
ENDBRANCH  12  15
ENDBRANCH  10  12
ENDBRANCH   1  10
TORSDOF 4
ENDMDL
MODEL      623
REMARK  Name = ZINC000021801065
REMARK                            x       y       z     vdW  Elec       q    Type
REMARK                         _______ _______ _______ _____ _____    ______ ____
ROOT
ATOM      1  N   LIG    1        1.316  -2.496  -2.534  0.00  0.00    -0.740 N 
ATOM      2  H   LIG    1        1.412  -1.908  -3.299  0.00  0.00    +0.400 HD
ENDROOT
BRANCH   1   3
ATOM      3  C   LIG    1        1.831  -3.793  -2.581  0.00  0.00    +0.250 A 
ATOM      4  C   LIG    1        1.689  -4.638  -1.488  0.00  0.00    -0.080 A 
ATOM      5  C   LIG    1        2.200  -5.921  -1.536  0.00  0.00    +0.090 A 
ATOM      6  C   LIG    1        2.852  -6.365  -2.671  0.00  0.00    -0.090 A 
ATOM      7  C   LIG    1        2.996  -5.525  -3.764  0.00  0.00    +0.150 A 
ATOM      8  F   LIG    1        3.634  -5.962  -4.872  0.00  0.00    -0.140 F 
ATOM      9  C   LIG    1        2.482  -4.242  -3.723  0.00  0.00    -0.110 A 
ENDBRANCH   1   3
BRANCH   1  10
ATOM     10  C   LIG    1        0.630  -2.023  -1.329  0.00  0.00    +0.230 C 
ATOM     11  C   LIG    1       -0.839  -2.448  -1.378  0.00  0.00    +0.020 C 
BRANCH  10  12
ATOM     12  C   LIG    1        0.718  -0.497  -1.257  0.00  0.00    -0.030 C 
ATOM     13  C   LIG    1        2.187  -0.073  -1.207  0.00  0.00    +0.030 C 
BRANCH  12  15
ATOM     14  C   LIG    1       -0.019   1.526   0.010  0.00  0.00    +0.020 C 
ATOM     15  C   LIG    1        0.002  -0.004   0.002  0.00  0.00    +0.010 C 
ENDBRANCH  12  15
ENDBRANCH  10  12
ENDBRANCH   1  10
TORSDOF 4
ENDMDL
MODEL      624
REMARK  Name = ZINC000066325005
REMARK                            x       y       z     vdW  Elec       q    Type
REMARK                         _______ _______ _______ _____ _____    ______ ____
ROOT
ATOM      1  C   LIG    1       -0.018   1.503   0.010  0.00  0.00    +0.090 C 
ATOM      2  C   LIG    1        0.002  -0.004   0.002  0.00  0.00    -0.090 A 
ATOM      3  C   LIG    1        0.006  -0.689  -1.199  0.00  0.00    +0.000 A 
ATOM      4  C   LIG    1        0.025  -2.071  -1.206  0.00  0.00    +0.000 A 
ATOM      5  C   LIG    1        0.040  -2.768  -0.013  0.00  0.00    -0.090 A 
ATOM      6  C   LIG    1        0.038  -2.084   1.188  0.00  0.00    -0.070 A 
ATOM      7  C   LIG    1        0.060  -4.275  -0.021  0.00  0.00    +0.090 C 
ATOM      8  C   LIG    1        0.023  -0.702   1.196  0.00  0.00    +0.010 A 
ENDROOT
BRANCH   6   9
ATOM      9  C   LIG    1        0.055  -2.844   2.489  0.00  0.00    +0.120 C 
BRANCH   9  10
ATOM     10  C   LIG    1        1.477  -3.186   2.852  0.00  0.00    -0.070 A 
ATOM     11  C   LIG    1        2.037  -4.371   2.412  0.00  0.00    +0.000 A 
ATOM     12  C   LIG    1        3.342  -4.684   2.745  0.00  0.00    +0.000 A 
ATOM     13  C   LIG    1        4.087  -3.812   3.518  0.00  0.00    +0.000 A 
ATOM     14  C   LIG    1        3.527  -2.627   3.957  0.00  0.00    +0.000 A 
ATOM     15  C   LIG    1        2.224  -2.312   3.620  0.00  0.00    +0.010 A 
ENDBRANCH   9  10
ENDBRANCH   6   9
TORSDOF 2
ENDMDL
MODEL      625
REMARK  Name = ZINC000066329434
REMARK                            x       y       z     vdW  Elec       q    Type
REMARK                         _______ _______ _______ _____ _____    ______ ____
ROOT
ATOM      1  C   LIG    1       -0.018   1.503   0.010  0.00  0.00    +0.110 C 
ATOM      2  C   LIG    1        0.002  -0.004   0.002  0.00  0.00    -0.020 A 
ATOM      3  C   LIG    1        0.006  -0.688  -1.199  0.00  0.00    +0.030 A 
ATOM      4  C   LIG    1        0.025  -2.072  -1.206  0.00  0.00    +0.000 A 
ATOM      5  C   LIG    1        0.040  -2.769  -0.011  0.00  0.00    +0.030 A 
ATOM      6  C   LIG    1        0.036  -2.084   1.189  0.00  0.00    +0.100 A 
ATOM      7 CL   LIG    1        0.030  -2.932  -2.714  0.00  0.00    -0.050 Cl
ATOM      8  C   LIG    1        0.023  -0.702   1.196  0.00  0.00    -0.190 A 
ENDROOT
BRANCH   8   9
ATOM      9  C   LIG    1        0.019   0.045   2.505  0.00  0.00    +0.510 C 
ATOM     10  F   LIG    1       -1.131   0.838   2.586  0.00  0.00    -0.170 F 
ATOM     11  F   LIG    1        1.154   0.860   2.580  0.00  0.00    -0.170 F 
ATOM     12  F   LIG    1        0.030  -0.869   3.563  0.00  0.00    -0.170 F 
ENDBRANCH   8   9
TORSDOF 1
ENDMDL
MODEL      626
REMARK  Name = ZINC000066329439
REMARK                            x       y       z     vdW  Elec       q    Type
REMARK                         _______ _______ _______ _____ _____    ______ ____
ROOT
ATOM      1  C   LIG    1       -0.018   1.503   0.010  0.00  0.00    +0.110 C 
ATOM      2  C   LIG    1        0.002  -0.004   0.002  0.00  0.00    -0.030 A 
ATOM      3  C   LIG    1        0.006  -0.688  -1.199  0.00  0.00    +0.040 A 
ATOM      4  C   LIG    1        0.025  -2.071  -1.207  0.00  0.00    +0.080 A 
ATOM      5  C   LIG    1        0.041  -2.769  -0.013  0.00  0.00    -0.050 A 
ATOM      6  C   LIG    1        0.037  -2.083   1.189  0.00  0.00    +0.090 A 
ATOM      7 CL   LIG    1        0.065  -4.505  -0.023  0.00  0.00    -0.050 Cl
ATOM      8  C   LIG    1        0.023  -0.702   1.196  0.00  0.00    -0.180 A 
ENDROOT
BRANCH   8   9
ATOM      9  C   LIG    1        0.019   0.045   2.505  0.00  0.00    +0.510 C 
ATOM     10  F   LIG    1       -1.131   0.838   2.586  0.00  0.00    -0.170 F 
ATOM     11  F   LIG    1        1.154   0.861   2.579  0.00  0.00    -0.170 F 
ATOM     12  F   LIG    1        0.032  -0.869   3.563  0.00  0.00    -0.170 F 
ENDBRANCH   8   9
TORSDOF 1
ENDMDL
MODEL      627
REMARK  Name = ZINC000066323187
REMARK                            x       y       z     vdW  Elec       q    Type
REMARK                         _______ _______ _______ _____ _____    ______ ____
ROOT
ATOM      1  C   LIG    1       -0.018   1.503   0.010  0.00  0.00    +0.090 C 
ATOM      2  C   LIG    1        0.002  -0.004   0.002  0.00  0.00    -0.080 A 
ATOM      3  C   LIG    1        0.006  -0.689  -1.199  0.00  0.00    +0.010 A 
ATOM      4  C   LIG    1        0.025  -2.071  -1.206  0.00  0.00    +0.040 A 
ATOM      5  C   LIG    1        0.040  -2.768  -0.013  0.00  0.00    -0.110 A 
ATOM      6  C   LIG    1        0.038  -2.084   1.188  0.00  0.00    +0.030 A 
ATOM      7  C   LIG    1        0.023  -0.702   1.195  0.00  0.00    +0.010 A 
ENDROOT
BRANCH   5   8
ATOM      8  C   LIG    1        0.060  -4.275  -0.021  0.00  0.00    +0.030 C 
ATOM      9  C   LIG    1        1.320  -4.773   0.690  0.00  0.00    +0.070 C 
BRANCH   8  10
ATOM     10  C   LIG    1       -1.179  -4.806   0.704  0.00  0.00    +0.460 C 
ATOM     11  F   LIG    1       -1.178  -4.347   2.025  0.00  0.00    -0.180 F 
ATOM     12  F   LIG    1       -1.160  -6.205   0.696  0.00  0.00    -0.180 F 
ATOM     13  F   LIG    1       -2.330  -4.351   0.053  0.00  0.00    -0.180 F 
ENDBRANCH   8  10
ENDBRANCH   5   8
TORSDOF 2
ENDMDL
MODEL      628
REMARK  Name = ZINC000066329366
REMARK                            x       y       z     vdW  Elec       q    Type
REMARK                         _______ _______ _______ _____ _____    ______ ____
ROOT
ATOM      1  C   LIG    1        1.492  -2.540   2.454  0.00  0.00    -0.170 A 
ATOM      2  C   LIG    1        2.858  -2.746   2.407  0.00  0.00    +0.080 A 
ATOM      3  C   LIG    1        3.527  -3.204   3.526  0.00  0.00    -0.010 A 
ATOM      4  C   LIG    1        2.829  -3.456   4.695  0.00  0.00    +0.120 A 
ATOM      5  C   LIG    1        1.461  -3.248   4.741  0.00  0.00    -0.010 A 
ATOM      6  F   LIG    1        3.483  -3.903   5.789  0.00  0.00    -0.130 F 
ATOM      7  C   LIG    1        0.794  -2.786   3.622  0.00  0.00    +0.080 A 
ENDROOT
BRANCH   1   8
ATOM      8  C   LIG    1        0.763  -2.041   1.233  0.00  0.00    +0.340 C 
ATOM      9  F   LIG    1        1.418  -2.492   0.082  0.00  0.00    -0.190 F 
ATOM     10  F   LIG    1       -0.550  -2.525   1.243  0.00  0.00    -0.190 F 
BRANCH   8  11
ATOM     11  C   LIG    1        0.742  -0.511   1.242  0.00  0.00    +0.050 C 
BRANCH  11  13
ATOM     12  C   LIG    1       -0.019   1.526   0.010  0.00  0.00    +0.030 C 
ATOM     13  C   LIG    1        0.002  -0.004   0.002  0.00  0.00    +0.010 C 
ENDBRANCH  11  13
ENDBRANCH   8  11
ENDBRANCH   1   8
TORSDOF 3
ENDMDL
MODEL      629
REMARK  Name = ZINC000066330464
REMARK                            x       y       z     vdW  Elec       q    Type
REMARK                         _______ _______ _______ _____ _____    ______ ____
ROOT
ATOM      1  C   LIG    1       -0.018   1.503   0.010  0.00  0.00    +0.120 C 
ATOM      2  C   LIG    1        0.002  -0.004   0.002  0.00  0.00    -0.080 A 
ATOM      3  C   LIG    1        0.006  -0.689  -1.198  0.00  0.00    +0.060 A 
ATOM      4  C   LIG    1        0.024  -2.071  -1.206  0.00  0.00    +0.030 A 
ATOM      5  C   LIG    1        0.039  -2.769  -0.013  0.00  0.00    +0.080 A 
ATOM      6  C   LIG    1        0.035  -2.086   1.188  0.00  0.00    -0.170 A 
ATOM      7  C   LIG    1        0.023  -0.702   1.196  0.00  0.00    +0.000 A 
ATOM      8 CL   LIG    1        0.018   0.157   2.705  0.00  0.00    -0.040 Cl
ENDROOT
BRANCH   6   9
ATOM      9  C   LIG    1        0.051  -2.847   2.488  0.00  0.00    +0.510 C 
ATOM     10  F   LIG    1       -1.092  -2.529   3.229  0.00  0.00    -0.170 F 
ATOM     11  F   LIG    1        1.192  -2.499   3.219  0.00  0.00    -0.170 F 
ATOM     12  F   LIG    1        0.068  -4.221   2.224  0.00  0.00    -0.170 F 
ENDBRANCH   6   9
TORSDOF 1
ENDMDL
MODEL      630
REMARK  Name = ZINC000066323206
REMARK                            x       y       z     vdW  Elec       q    Type
REMARK                         _______ _______ _______ _____ _____    ______ ____
ROOT
ATOM      1  C   LIG    1       -0.018   1.503   0.010  0.00  0.00    +0.120 C 
ATOM      2  C   LIG    1        0.002  -0.004   0.002  0.00  0.00    -0.120 A 
ATOM      3  C   LIG    1        0.006  -0.688  -1.198  0.00  0.00    +0.090 A 
ATOM      4  C   LIG    1        0.025  -2.071  -1.207  0.00  0.00    +0.030 A 
ATOM      5  C   LIG    1        0.040  -2.771  -0.014  0.00  0.00    +0.010 A 
ATOM      6  C   LIG    1        0.036  -2.087   1.189  0.00  0.00    -0.200 A 
ATOM      7 CL   LIG    1        0.064  -4.506  -0.026  0.00  0.00    -0.030 Cl
ATOM      8  C   LIG    1        0.023  -0.703   1.198  0.00  0.00    +0.140 A 
ATOM      9  F   LIG    1        0.020  -0.034   2.371  0.00  0.00    -0.120 F 
ENDROOT
BRANCH   6  10
ATOM     10  C   LIG    1        0.053  -2.849   2.489  0.00  0.00    +0.450 C 
ATOM     11  F   LIG    1        0.707  -2.090   3.466  0.00  0.00    -0.190 F 
ATOM     12  F   LIG    1        0.729  -4.061   2.311  0.00  0.00    -0.180 F 
ENDBRANCH   6  10
TORSDOF 1
ENDMDL
MODEL      631
REMARK  Name = ZINC000066330506
REMARK                            x       y       z     vdW  Elec       q    Type
REMARK                         _______ _______ _______ _____ _____    ______ ____
ROOT
ATOM      1  C   LIG    1       -0.018   1.503   0.010  0.00  0.00    +0.110 C 
ATOM      2  C   LIG    1        0.002  -0.004   0.002  0.00  0.00    -0.040 A 
ATOM      3  C   LIG    1        0.006  -0.689  -1.198  0.00  0.00    +0.040 A 
ATOM      4  C   LIG    1        0.024  -2.071  -1.206  0.00  0.00    +0.080 A 
ATOM      5  C   LIG    1        0.039  -2.769  -0.013  0.00  0.00    -0.180 A 
ATOM      6  C   LIG    1        0.035  -2.086   1.188  0.00  0.00    +0.090 A 
ATOM      7  C   LIG    1        0.023  -0.702   1.196  0.00  0.00    -0.040 A 
ATOM      8 CL   LIG    1        0.018   0.157   2.705  0.00  0.00    -0.050 Cl
ENDROOT
BRANCH   5   9
ATOM      9  C   LIG    1        0.059  -4.276  -0.023  0.00  0.00    +0.510 C 
ATOM     10  F   LIG    1       -0.599  -4.744  -1.165  0.00  0.00    -0.170 F 
ATOM     11  F   LIG    1       -0.589  -4.758   1.119  0.00  0.00    -0.170 F 
ATOM     12  F   LIG    1        1.385  -4.724  -0.031  0.00  0.00    -0.170 F 
ENDBRANCH   5   9
TORSDOF 1
ENDMDL
MODEL      632
REMARK  Name = ZINC000066330469
REMARK                            x       y       z     vdW  Elec       q    Type
REMARK                         _______ _______ _______ _____ _____    ______ ____
ROOT
ATOM      1  C   LIG    1       -0.018   1.503   0.010  0.00  0.00    +0.120 C 
ATOM      2  C   LIG    1        0.002  -0.004   0.002  0.00  0.00    -0.020 A 
ATOM      3  C   LIG    1        0.006  -0.689  -1.200  0.00  0.00    -0.040 A 
ATOM      4  C   LIG    1        0.025  -2.073  -1.206  0.00  0.00    +0.070 A 
ATOM      5  C   LIG    1        0.041  -2.769  -0.013  0.00  0.00    +0.040 A 
ATOM      6  C   LIG    1        0.037  -2.084   1.188  0.00  0.00    +0.090 A 
ATOM      7 CL   LIG    1       -0.013   0.186  -2.699  0.00  0.00    -0.050 Cl
ATOM      8  C   LIG    1        0.023  -0.702   1.195  0.00  0.00    -0.180 A 
ENDROOT
BRANCH   8   9
ATOM      9  C   LIG    1        0.019   0.045   2.504  0.00  0.00    +0.510 C 
ATOM     10  F   LIG    1       -1.131   0.837   2.586  0.00  0.00    -0.170 F 
ATOM     11  F   LIG    1        1.154   0.860   2.579  0.00  0.00    -0.170 F 
ATOM     12  F   LIG    1        0.032  -0.870   3.563  0.00  0.00    -0.170 F 
ENDBRANCH   8   9
TORSDOF 1
ENDMDL
MODEL      633
REMARK  Name = ZINC000067794493
REMARK                            x       y       z     vdW  Elec       q    Type
REMARK                         _______ _______ _______ _____ _____    ______ ____
ROOT
ATOM      1  C   LIG    1       -0.018   1.503   0.010  0.00  0.00    +0.120 C 
ATOM      2  C   LIG    1        0.002  -0.004   0.002  0.00  0.00    -0.070 A 
ATOM      3  C   LIG    1        0.006  -0.688  -1.199  0.00  0.00    +0.060 A 
ATOM      4  C   LIG    1        0.025  -2.072  -1.206  0.00  0.00    -0.030 A 
ATOM      5  C   LIG    1        0.040  -2.769  -0.011  0.00  0.00    +0.080 A 
ATOM      6  C   LIG    1        0.036  -2.084   1.189  0.00  0.00    -0.170 A 
ATOM      7 CL   LIG    1        0.030  -2.932  -2.714  0.00  0.00    -0.050 Cl
ATOM      8  C   LIG    1        0.023  -0.702   1.196  0.00  0.00    +0.070 A 
ENDROOT
BRANCH   6   9
ATOM      9  C   LIG    1        0.052  -2.843   2.490  0.00  0.00    +0.510 C 
ATOM     10  F   LIG    1       -1.091  -2.524   3.231  0.00  0.00    -0.170 F 
ATOM     11  F   LIG    1        1.193  -2.493   3.220  0.00  0.00    -0.170 F 
ATOM     12  F   LIG    1        0.070  -4.217   2.228  0.00  0.00    -0.170 F 
ENDBRANCH   6   9
TORSDOF 1
ENDMDL
MODEL      634
REMARK  Name = ZINC000068568763
REMARK                            x       y       z     vdW  Elec       q    Type
REMARK                         _______ _______ _______ _____ _____    ______ ____
ROOT
ATOM      1  C   LIG    1        1.455  -2.521  -2.524  0.00  0.00    +0.050 C 
ATOM      2  C   LIG    1        1.628  -4.039  -2.561  0.00  0.00    +0.100 C 
ATOM      3  C   LIG    1        0.708  -3.975  -3.762  0.00  0.00    -0.130 A 
ATOM      4  C   LIG    1        0.057  -4.708  -4.746  0.00  0.00    +0.020 A 
ATOM      5  C   LIG    1       -0.737  -4.071  -5.678  0.00  0.00    +0.000 A 
ATOM      6  C   LIG    1       -0.889  -2.697  -5.639  0.00  0.00    +0.010 A 
ATOM      7  C   LIG    1       -0.243  -1.964  -4.662  0.00  0.00    +0.030 A 
ATOM      8  C   LIG    1        0.552  -2.599  -3.728  0.00  0.00    -0.130 A 
ENDROOT
BRANCH   1   9
ATOM      9  C   LIG    1        0.739  -2.027  -1.265  0.00  0.00    +0.030 C 
BRANCH   9  10
ATOM     10  C   LIG    1        0.718  -0.497  -1.257  0.00  0.00    +0.000 C 
BRANCH  10  12
ATOM     11  C   LIG    1       -0.019   1.526   0.010  0.00  0.00    +0.000 C 
ATOM     12  C   LIG    1        0.002  -0.004   0.002  0.00  0.00    -0.010 C 
ENDBRANCH  10  12
ENDBRANCH   9  10
ENDBRANCH   1   9
TORSDOF 3
ENDMDL
MODEL      635
REMARK  Name = ZINC000001095292
REMARK                            x       y       z     vdW  Elec       q    Type
REMARK                         _______ _______ _______ _____ _____    ______ ____
ROOT
ATOM      1  C   LIG    1       -0.018   1.503   0.010  0.00  0.00    +0.090 C 
ATOM      2  C   LIG    1        0.002  -0.004   0.002  0.00  0.00    -0.080 A 
ATOM      3  C   LIG    1        0.006  -0.686  -1.201  0.00  0.00    +0.000 A 
ATOM      4  C   LIG    1        0.024  -2.067  -1.215  0.00  0.00    +0.020 A 
ATOM      5  C   LIG    1        0.040  -2.772  -0.013  0.00  0.00    -0.050 A 
ATOM      6  C   LIG    1        0.036  -2.080   1.196  0.00  0.00    +0.020 A 
ATOM      7  C   LIG    1        0.023  -0.700   1.198  0.00  0.00    +0.000 A 
ENDROOT
BRANCH   5   8
ATOM      8  C   LIG    1        0.060  -4.256  -0.021  0.00  0.00    -0.050 A 
ATOM      9  C   LIG    1        0.070  -4.949  -1.230  0.00  0.00    +0.020 A 
ATOM     10  C   LIG    1        0.089  -6.329  -1.232  0.00  0.00    +0.000 A 
ATOM     11  C   LIG    1        0.099  -7.024  -0.037  0.00  0.00    +0.000 A 
ATOM     12  C   LIG    1        0.089  -6.342   1.167  0.00  0.00    +0.000 A 
ATOM     13  C   LIG    1        0.075  -4.962   1.180  0.00  0.00    +0.020 A 
ENDBRANCH   5   8
TORSDOF 1
ENDMDL
MODEL      636
REMARK  Name = ZINC000068571786
REMARK                            x       y       z     vdW  Elec       q    Type
REMARK                         _______ _______ _______ _____ _____    ______ ____
ROOT
ATOM      1  C   LIG    1       -0.019   1.526   0.010  0.00  0.00    +0.040 C 
ATOM      2  C   LIG    1        0.002  -0.004   0.002  0.00  0.00    +0.040 C 
ATOM      3  C   LIG    1        0.705  -0.489  -1.235  0.00  0.00    -0.010 C 
ATOM      4  C   LIG    1        0.802  -1.778  -1.517  0.00  0.00    +0.000 C 
ATOM      5  C   LIG    1        0.228  -2.816  -0.680  0.00  0.00    +0.000 C 
ATOM      6  C   LIG    1        0.242  -2.824   0.649  0.00  0.00    +0.000 C 
ATOM      7  C   LIG    1        0.831  -1.794   1.486  0.00  0.00    -0.010 C 
ATOM      8  C   LIG    1        0.729  -0.502   1.220  0.00  0.00    -0.010 C 
ENDROOT
BRANCH   2   9
ATOM      9  C   LIG    1       -1.412  -0.526   0.013  0.00  0.00    -0.060 A 
ATOM     10  C   LIG    1       -1.845  -1.327   1.053  0.00  0.00    +0.020 A 
ATOM     11  C   LIG    1       -3.142  -1.806   1.063  0.00  0.00    +0.000 A 
ATOM     12  C   LIG    1       -4.006  -1.482   0.033  0.00  0.00    +0.000 A 
ATOM     13  C   LIG    1       -3.573  -0.679  -1.006  0.00  0.00    +0.000 A 
ATOM     14  C   LIG    1       -2.277  -0.198  -1.014  0.00  0.00    +0.010 A 
ENDBRANCH   2   9
TORSDOF 1
ENDMDL
MODEL      637
REMARK  Name = ZINC000068568761
REMARK                            x       y       z     vdW  Elec       q    Type
REMARK                         _______ _______ _______ _____ _____    ______ ____
ROOT
ATOM      1  C   LIG    1        1.455  -2.521  -2.524  0.00  0.00    +0.050 C 
ATOM      2  C   LIG    1        1.422  -4.042  -2.678  0.00  0.00    +0.100 C 
ATOM      3  C   LIG    1        2.924  -3.952  -2.510  0.00  0.00    -0.130 A 
ATOM      4  C   LIG    1        4.115  -4.665  -2.454  0.00  0.00    +0.020 A 
ATOM      5  C   LIG    1        5.313  -4.007  -2.261  0.00  0.00    +0.000 A 
ATOM      6  C   LIG    1        5.336  -2.632  -2.123  0.00  0.00    +0.010 A 
ATOM      7  C   LIG    1        4.154  -1.918  -2.178  0.00  0.00    +0.030 A 
ATOM      8  C   LIG    1        2.954  -2.574  -2.371  0.00  0.00    -0.130 A 
ENDROOT
BRANCH   1   9
ATOM      9  C   LIG    1        0.739  -2.027  -1.265  0.00  0.00    +0.030 C 
BRANCH   9  10
ATOM     10  C   LIG    1        0.718  -0.497  -1.257  0.00  0.00    +0.000 C 
BRANCH  10  12
ATOM     11  C   LIG    1       -0.019   1.526   0.010  0.00  0.00    +0.000 C 
ATOM     12  C   LIG    1        0.002  -0.004   0.002  0.00  0.00    -0.010 C 
ENDBRANCH  10  12
ENDBRANCH   9  10
ENDBRANCH   1   9
TORSDOF 3
ENDMDL
MODEL      638
REMARK  Name = ZINC000068564078
REMARK                            x       y       z     vdW  Elec       q    Type
REMARK                         _______ _______ _______ _____ _____    ______ ____
ROOT
ATOM      1  C   LIG    1        0.898  -0.510  -3.397  0.00  0.00    +0.060 C 
ENDROOT
BRANCH   1   2
ATOM      2  C   LIG    1        0.875   0.246  -4.700  0.00  0.00    -0.080 A 
ATOM      3  C   LIG    1        0.020  -0.148  -5.713  0.00  0.00    +0.000 A 
ATOM      4  C   LIG    1       -0.001   0.546  -6.908  0.00  0.00    +0.000 A 
ATOM      5  C   LIG    1        0.833   1.633  -7.091  0.00  0.00    -0.010 A 
ATOM      6  C   LIG    1        1.687   2.027  -6.078  0.00  0.00    +0.000 A 
ATOM      7  C   LIG    1        1.705   1.336  -4.881  0.00  0.00    +0.000 A 
ENDBRANCH   1   2
BRANCH   1   8
ATOM      8  C   LIG    1       -0.122   0.102  -2.434  0.00  0.00    +0.050 C 
BRANCH   8  11
ATOM      9  C   LIG    1        0.165   1.492   0.002  0.00  0.00    +0.080 C 
ATOM     10  C   LIG    1        0.092  -0.013  -0.005  0.00  0.00    -0.130 C 
ATOM     11  C   LIG    1       -0.099  -0.654  -1.131  0.00  0.00    -0.060 C 
ATOM     12  C   LIG    1        0.238  -0.780   1.284  0.00  0.00    +0.070 C 
ENDBRANCH   8  11
ENDBRANCH   1   8
TORSDOF 3
ENDMDL
MODEL      639
REMARK  Name = ZINC000003851733
REMARK                            x       y       z     vdW  Elec       q    Type
REMARK                         _______ _______ _______ _____ _____    ______ ____
ROOT
ATOM      1  O   LIG    1        0.909  -0.394  -3.291  0.00  0.00    -0.370 OA
ENDROOT
BRANCH   1   2
ATOM      2  C   LIG    1       -0.122   0.102  -2.434  0.00  0.00    +0.180 C 
ATOM      3  C   LIG    1       -1.481  -0.088  -3.110  0.00  0.00    +0.030 C 
BRANCH   2   6
ATOM      4  C   LIG    1       -0.017   1.502   0.011  0.00  0.00    +0.080 C 
ATOM      5  C   LIG    1        0.009  -0.004   0.002  0.00  0.00    -0.120 C 
ATOM      6  C   LIG    1       -0.099  -0.654  -1.131  0.00  0.00    -0.040 C 
ATOM      7  C   LIG    1        0.158  -0.764   1.295  0.00  0.00    +0.080 C 
ENDBRANCH   2   6
ENDBRANCH   1   2
BRANCH   1   8
ATOM      8  C   LIG    1        1.438   0.583  -4.190  0.00  0.00    +0.220 C 
BRANCH   8   9
ATOM      9  C   LIG    1        2.512  -0.046  -5.040  0.00  0.00    -0.090 A 
ATOM     10  C   LIG    1        3.826  -0.035  -4.613  0.00  0.00    +0.020 A 
ATOM     11  C   LIG    1        4.811  -0.612  -5.392  0.00  0.00    +0.000 A 
ATOM     12  C   LIG    1        4.482  -1.200  -6.599  0.00  0.00    +0.010 A 
ATOM     13  C   LIG    1        3.167  -1.211  -7.026  0.00  0.00    +0.000 A 
ATOM     14  C   LIG    1        2.181  -0.638  -6.244  0.00  0.00    +0.020 A 
ENDBRANCH   8   9
ENDBRANCH   1   8
TORSDOF 4
ENDMDL
MODEL      640
REMARK  Name = ZINC000104282285
REMARK                            x       y       z     vdW  Elec       q    Type
REMARK                         _______ _______ _______ _____ _____    ______ ____
ROOT
ATOM      1  C   LIG    1       -0.018   1.494   0.010  0.00  0.00    -0.020 C 
ATOM      2  C   LIG    1        1.137   2.109   0.003  0.00  0.00    -0.030 C 
ATOM      3  C   LIG    1        2.404   1.274   0.043  0.00  0.00    +0.150 C 
ATOM      4  C   LIG    1        3.596   2.145   0.221  0.00  0.00    +0.000 C 
ATOM      5  C   LIG    1        3.755   0.739   0.814  0.00  0.00    +0.110 C 
ATOM      6  C   LIG    1        2.559   0.395  -1.247  0.00  0.00    +0.030 C 
ATOM      7  C   LIG    1        3.588  -0.712  -1.007  0.00  0.00    +0.000 C 
ATOM      8  C   LIG    1        3.521  -1.615   0.204  0.00  0.00    -0.010 C 
ATOM      9  C   LIG    1        3.252  -0.956   1.583  0.00  0.00    +0.190 C 
ATOM     10  C   LIG    1        2.348   0.244   1.131  0.00  0.00    -0.500 C 
ATOM     11  C   LIG    1        1.213  -0.626   0.646  0.00  0.00    +0.040 C 
ATOM     12  C   LIG    1        0.002  -0.004   0.002  0.00  0.00    +0.030 C 
ENDROOT
TORSDOF 0
ENDMDL
MODEL      641
REMARK  Name = ZINC000007277040
REMARK                            x       y       z     vdW  Elec       q    Type
REMARK                         _______ _______ _______ _____ _____    ______ ____
ROOT
ATOM      1  N   LIG    1        1.448  -2.513   0.028  0.00  0.00    -0.740 N 
ATOM      2  H   LIG    1        1.482  -1.952  -0.763  0.00  0.00    +0.400 HD
ENDROOT
BRANCH   1   8
ATOM      3  C   LIG    1       -0.019   1.526   0.010  0.00  0.00    +0.020 C 
ATOM      4  C   LIG    1        0.002  -0.004   0.002  0.00  0.00    -0.020 C 
ATOM      5  C   LIG    1       -1.433  -0.534   0.013  0.00  0.00    +0.000 C 
ATOM      6  C   LIG    1       -1.413  -2.063   0.004  0.00  0.00    +0.000 C 
ATOM      7  C   LIG    1       -0.673  -2.570   1.244  0.00  0.00    +0.000 C 
ATOM      8  C   LIG    1        0.763  -2.041   1.233  0.00  0.00    +0.230 C 
ATOM      9  C   LIG    1        0.742  -0.511   1.242  0.00  0.00    +0.030 C 
ENDBRANCH   1   8
BRANCH   1  10
ATOM     10  C   LIG    1        2.055  -3.771   0.017  0.00  0.00    +0.220 A 
ATOM     11  C   LIG    1        2.004  -4.578   1.147  0.00  0.00    -0.080 A 
ATOM     12  C   LIG    1        2.604  -5.822   1.133  0.00  0.00    +0.050 A 
ATOM     13  C   LIG    1        3.256  -6.264  -0.004  0.00  0.00    -0.060 A 
ATOM     14  C   LIG    1        3.308  -5.463  -1.130  0.00  0.00    +0.050 A 
ATOM     15  C   LIG    1        2.705  -4.221  -1.125  0.00  0.00    -0.080 A 
ENDBRANCH   1  10
TORSDOF 2
ENDMDL
MODEL      642
REMARK  Name = ZINC000002077784
REMARK                            x       y       z     vdW  Elec       q    Type
REMARK                         _______ _______ _______ _____ _____    ______ ____
ROOT
ATOM      1  C   LIG    1       -1.493  -1.984  -0.030  0.00  0.00    +0.000 C 
ATOM      2  C   LIG    1       -1.025  -2.441   1.353  0.00  0.00    +0.040 C 
ATOM      3  C   LIG    1       -1.001  -3.972   1.402  0.00  0.00    +0.020 C 
ATOM      4  C   LIG    1       -2.366  -4.487   1.005  0.00  0.00    +0.360 C 
ATOM      5  C   LIG    1       -2.979  -3.977  -0.280  0.00  0.00    -0.040 C 
ATOM      6  C   LIG    1       -4.431  -4.449  -0.380  0.00  0.00    +0.040 C 
ATOM      7  O   LIG    1       -2.952  -5.286   1.696  0.00  0.00    -0.450 OA
ATOM      8  C   LIG    1       -2.932  -2.446  -0.267  0.00  0.00    +0.040 C 
ENDROOT
BRANCH   1   9
ATOM      9  C   LIG    1       -1.429  -0.458  -0.110  0.00  0.00    -0.050 C 
ATOM     10  C   LIG    1       -1.838  -0.003  -1.512  0.00  0.00    +0.030 C 
ATOM     11  C   LIG    1       -2.384   0.148   0.921  0.00  0.00    +0.030 C 
BRANCH   9  13
ATOM     12  C   LIG    1        0.963  -0.654  -0.804  0.00  0.00    +0.020 C 
ATOM     13  C   LIG    1       -0.001   0.009   0.182  0.00  0.00    -0.020 C 
ATOM     14  C   LIG    1        0.080   1.529   0.030  0.00  0.00    +0.020 C 
ENDBRANCH   9  13
ENDBRANCH   1   9
TORSDOF 2
ENDMDL
MODEL      643
REMARK  Name = ZINC000066329346
REMARK                            x       y       z     vdW  Elec       q    Type
REMARK                         _______ _______ _______ _____ _____    ______ ____
ROOT
ATOM      1  C   LIG    1        2.165  -0.079  -1.208  0.00  0.00    -0.170 A 
ATOM      2  C   LIG    1        2.551   1.137  -1.739  0.00  0.00    +0.080 A 
ATOM      3  C   LIG    1        3.878   1.522  -1.695  0.00  0.00    -0.010 A 
ATOM      4  C   LIG    1        4.821   0.688  -1.118  0.00  0.00    +0.120 A 
ATOM      5  C   LIG    1        4.433  -0.530  -0.586  0.00  0.00    -0.010 A 
ATOM      6  F   LIG    1        6.118   1.063  -1.074  0.00  0.00    -0.130 F 
ATOM      7  C   LIG    1        3.105  -0.910  -0.627  0.00  0.00    +0.080 A 
ENDROOT
BRANCH   1   8
ATOM      8  C   LIG    1        0.718  -0.497  -1.257  0.00  0.00    +0.340 C 
ATOM      9  F   LIG    1        0.110   0.058  -2.387  0.00  0.00    -0.190 F 
ATOM     10  F   LIG    1        0.638  -1.893  -1.322  0.00  0.00    -0.190 F 
BRANCH   8  12
ATOM     11  C   LIG    1       -0.019   1.526   0.010  0.00  0.00    +0.050 C 
ATOM     12  C   LIG    1        0.002  -0.004   0.002  0.00  0.00    -0.030 C 
ATOM     13  C   LIG    1       -1.433  -0.534   0.013  0.00  0.00    +0.040 C 
ENDBRANCH   8  12
ENDBRANCH   1   8
TORSDOF 2
ENDMDL
MODEL      644
REMARK  Name = ZINC000095611762
REMARK                            x       y       z     vdW  Elec       q    Type
REMARK                         _______ _______ _______ _____ _____    ______ ____
ROOT
ATOM      1  C   LIG    1        2.774  -2.422  -1.415  0.00  0.00    -0.090 A 
ATOM      2  C   LIG    1        1.708  -2.782  -2.239  0.00  0.00    +0.060 A 
ATOM      3  C   LIG    1        1.389  -4.114  -2.407  0.00  0.00    +0.000 A 
ATOM      4  C   LIG    1        2.122  -5.093  -1.760  0.00  0.00    +0.040 A 
ATOM      5  C   LIG    1        3.180  -4.744  -0.940  0.00  0.00    -0.010 A 
ATOM      6  C   LIG    1        3.516  -3.415  -0.768  0.00  0.00    +0.100 A 
ATOM      7  F   LIG    1        4.550  -3.075   0.032  0.00  0.00    -0.140 F 
ENDROOT
BRANCH   1   9
ATOM      8  C   LIG    1        2.162  -0.095  -1.084  0.00  0.00    -0.010 C 
ATOM      9  C   LIG    1        3.122  -0.997  -1.230  0.00  0.00    -0.010 C 
BRANCH   8  10
ATOM     10  C   LIG    1        0.727  -0.535  -0.949  0.00  0.00    +0.050 C 
BRANCH  10  12
ATOM     11  C   LIG    1        0.061   1.607   0.150  0.00  0.00    +0.010 C 
ATOM     12  C   LIG    1        0.118   0.087   0.309  0.00  0.00    -0.020 C 
ATOM     13  C   LIG    1       -1.297  -0.458   0.515  0.00  0.00    +0.020 C 
ENDBRANCH  10  12
ENDBRANCH   8  10
ENDBRANCH   1   9
TORSDOF 3
ENDMDL
MODEL      645
REMARK  Name = ZINC000034099947
REMARK                            x       y       z     vdW  Elec       q    Type
REMARK                         _______ _______ _______ _____ _____    ______ ____
ROOT
ATOM      1  C   LIG    1       -0.017   1.364   0.009  0.00  0.00    +0.220 A 
ATOM      2  C   LIG    1        1.239   1.839   0.000  0.00  0.00    -0.060 A 
ATOM      3  C   LIG    1        2.136   0.681  -0.015  0.00  0.00    -0.110 A 
ATOM      4  C   LIG    1        3.526   0.533  -0.029  0.00  0.00    +0.060 A 
ATOM      5  C   LIG    1        4.077  -0.715  -0.042  0.00  0.00    +0.000 A 
ATOM      6  C   LIG    1        3.259  -1.850  -0.041  0.00  0.00    -0.030 A 
ATOM      7  C   LIG    1        1.876  -1.720  -0.026  0.00  0.00    +0.000 A 
ATOM      8  C   LIG    1        1.304  -0.454  -0.013  0.00  0.00    +0.100 A 
ATOM      9  N   LIG    1        0.002  -0.004   0.002  0.00  0.00    -0.600 N 
ATOM     10  H   LIG    1       -0.784  -0.572   0.006  0.00  0.00    +0.420 HD
ENDROOT
BRANCH   6  11
ATOM     11  C   LIG    1        3.872  -3.200  -0.055  0.00  0.00    -0.040 A 
ATOM     12  C   LIG    1        3.064  -4.335  -0.060  0.00  0.00    +0.010 A 
ATOM     13  C   LIG    1        3.640  -5.589  -0.073  0.00  0.00    +0.000 A 
ATOM     14  C   LIG    1        5.017  -5.721  -0.082  0.00  0.00    +0.000 A 
ATOM     15  C   LIG    1        5.824  -4.597  -0.077  0.00  0.00    +0.000 A 
ATOM     16  C   LIG    1        5.259  -3.338  -0.070  0.00  0.00    +0.020 A 
ENDBRANCH   6  11
TORSDOF 1
ENDMDL
MODEL      646
REMARK  Name = ZINC000032009434
REMARK                            x       y       z     vdW  Elec       q    Type
REMARK                         _______ _______ _______ _____ _____    ______ ____
ROOT
ATOM      1  C   LIG    1       -3.523  -0.530  -1.498  0.00  0.00    -0.170 A 
ATOM      2  C   LIG    1       -4.216  -1.266  -0.532  0.00  0.00    +0.080 A 
ATOM      3  C   LIG    1       -5.526  -1.631  -0.756  0.00  0.00    +0.020 A 
ATOM      4  C   LIG    1       -6.157  -1.269  -1.936  0.00  0.00    -0.010 A 
ATOM      5  C   LIG    1       -5.477  -0.539  -2.898  0.00  0.00    +0.020 A 
ATOM      6 CL   LIG    1       -7.808  -1.731  -2.209  0.00  0.00    -0.060 Cl
ATOM      7  C   LIG    1       -4.168  -0.164  -2.685  0.00  0.00    +0.090 A 
ENDROOT
BRANCH   1   8
ATOM      8  C   LIG    1       -2.125  -0.137  -1.266  0.00  0.00    +0.400 C 
ATOM      9  O   LIG    1       -1.528   0.505  -2.104  0.00  0.00    -0.440 OA
BRANCH   8  10
ATOM     10  C   LIG    1       -1.433  -0.534   0.013  0.00  0.00    +0.040 C 
BRANCH  10  12
ATOM     11  C   LIG    1       -0.019   1.526   0.010  0.00  0.00    +0.020 C 
ATOM     12  C   LIG    1        0.002  -0.004   0.002  0.00  0.00    -0.010 C 
ATOM     13  C   LIG    1        0.742  -0.511   1.242  0.00  0.00    +0.030 C 
ENDBRANCH  10  12
ENDBRANCH   8  10
ENDBRANCH   1   8
TORSDOF 3
ENDMDL
MODEL      647
REMARK  Name = ZINC000012656702
REMARK                            x       y       z     vdW  Elec       q    Type
REMARK                         _______ _______ _______ _____ _____    ______ ____
ROOT
ATOM      1  C   LIG    1       -0.161   1.469   0.016  0.00  0.00    +0.000 C 
ATOM      2  C   LIG    1       -0.117  -0.064   0.007  0.00  0.00    +0.180 C 
ATOM      3  C   LIG    1       -1.517  -0.624  -0.168  0.00  0.00    -0.010 C 
ATOM      4  C   LIG    1       -2.207  -0.940   1.160  0.00  0.00    +0.020 C 
ATOM      5  C   LIG    1       -1.244  -1.752   2.025  0.00  0.00    -0.020 C 
ATOM      6  C   LIG    1       -1.911  -2.371   3.233  0.00  0.00    -0.050 C 
ATOM      7  C   LIG    1       -0.900  -3.056   4.153  0.00  0.00    +0.010 C 
ATOM      8  C   LIG    1        0.288  -2.156   4.468  0.00  0.00    +0.010 C 
ATOM      9  C   LIG    1        0.970  -1.716   3.175  0.00  0.00    +0.030 C 
ATOM     10  C   LIG    1       -2.871  -3.481   2.735  0.00  0.00    +0.010 C 
ATOM     11  C   LIG    1       -2.754  -1.376   4.028  0.00  0.00    +0.030 C 
ATOM     12  C   LIG    1       -0.015  -0.905   2.323  0.00  0.00    +0.140 C 
ATOM     13  C   LIG    1       -0.351   0.386   3.070  0.00  0.00    +0.010 C 
ATOM     14  O   LIG    1        0.620  -0.571   1.091  0.00  0.00    -0.380 OA
ENDROOT
TORSDOF 0
ENDMDL
MODEL      648
REMARK  Name = ZINC000034577064
REMARK                            x       y       z     vdW  Elec       q    Type
REMARK                         _______ _______ _______ _____ _____    ______ ____
ROOT
ATOM      1  C   LIG    1       -0.018   1.503   0.010  0.00  0.00    +0.100 C 
ATOM      2  C   LIG    1        0.002  -0.004   0.002  0.00  0.00    -0.070 A 
ATOM      3  C   LIG    1        0.006  -0.688  -1.200  0.00  0.00    +0.020 A 
ATOM      4  C   LIG    1        0.025  -2.071  -1.212  0.00  0.00    +0.040 A 
ATOM      5  C   LIG    1        0.041  -2.774  -0.024  0.00  0.00    -0.010 A 
ATOM      6  C   LIG    1        0.037  -2.090   1.186  0.00  0.00    -0.100 A 
ATOM      7  C   LIG    1        0.023  -0.700   1.195  0.00  0.00    +0.040 A 
ENDROOT
BRANCH   6   8
ATOM      8  S   LIG    1        0.057  -2.982   2.705  0.00  0.00    -0.020 S 
BRANCH   8   9
ATOM      9  C   LIG    1        0.078  -4.713   2.162  0.00  0.00    +0.450 C 
ATOM     10  F   LIG    1       -1.064  -4.976   1.398  0.00  0.00    -0.160 F 
ATOM     11  F   LIG    1        0.095  -5.553   3.280  0.00  0.00    -0.140 F 
ATOM     12  F   LIG    1        1.220  -4.944   1.387  0.00  0.00    -0.160 F 
ENDBRANCH   8   9
ENDBRANCH   6   8
TORSDOF 2
ENDMDL
MODEL      649
REMARK  Name = ZINC000002028811
REMARK                            x       y       z     vdW  Elec       q    Type
REMARK                         _______ _______ _______ _____ _____    ______ ____
ROOT
ATOM      1  C   LIG    1        0.002  -0.004   0.002  0.00  0.00    +0.180 C 
ATOM      2  C   LIG    1        0.718  -0.498  -1.257  0.00  0.00    -0.010 C 
ATOM      3  C   LIG    1        1.534  -1.748  -0.923  0.00  0.00    +0.010 C 
ATOM      4  C   LIG    1        1.486  -2.719  -2.104  0.00  0.00    +0.010 C 
ATOM      5  C   LIG    1        1.794  -4.135  -1.614  0.00  0.00    +0.010 C 
ATOM      6  C   LIG    1        0.553  -5.014  -1.782  0.00  0.00    +0.010 C 
ATOM      7  C   LIG    1       -0.218  -5.066  -0.461  0.00  0.00    +0.000 C 
ATOM      8  C   LIG    1       -1.516  -4.269  -0.596  0.00  0.00    +0.010 C 
ATOM      9  C   LIG    1       -2.081  -3.973   0.795  0.00  0.00    +0.000 C 
ATOM     10  C   LIG    1       -2.805  -2.626   0.776  0.00  0.00    +0.050 C 
ATOM     11  C   LIG    1       -1.817  -1.511   1.125  0.00  0.00    -0.040 C 
ATOM     12  C   LIG    1       -2.348  -0.077   1.151  0.00  0.00    +0.030 C 
ATOM     13  C   LIG    1       -1.433  -0.534   0.013  0.00  0.00    -0.030 C 
ENDROOT
BRANCH   1  14
ATOM     14  O   LIG    1       -0.017   1.425   0.010  0.00  0.00    -0.570 OA
ATOM     15  H   LIG    1        0.861   1.830   0.004  0.00  0.00    +0.380 HD
ENDBRANCH   1  14
TORSDOF 1
ENDMDL
MODEL      650
REMARK  Name = ZINC000669379219
REMARK                            x       y       z     vdW  Elec       q    Type
REMARK                         _______ _______ _______ _____ _____    ______ ____
ROOT
ATOM      1  F   LIG    1        0.002  -0.004   0.002  0.00  0.00    -0.120 F 
ATOM      2  C   LIG    1       -0.016   1.347   0.009  0.00  0.00    +0.110 A 
ATOM      3  C   LIG    1       -1.225   2.024   0.030  0.00  0.00    -0.070 A 
ATOM      4  C   LIG    1       -1.242   3.407   0.038  0.00  0.00    +0.050 A 
ATOM      5  C   LIG    1       -0.053   4.113   0.025  0.00  0.00    +0.030 A 
ATOM      6  C   LIG    1        1.153   3.438   0.004  0.00  0.00    +0.050 A 
ATOM      7 CL   LIG    1       -2.717   1.137   0.048  0.00  0.00    -0.050 Cl
ATOM      8  C   LIG    1        1.173   2.056   0.002  0.00  0.00    -0.090 A 
ENDROOT
BRANCH   8   9
ATOM      9  C   LIG    1        2.488   1.321  -0.021  0.00  0.00    +0.020 C 
ATOM     10  C   LIG    1        3.557   1.998  -0.896  0.00  0.00    +0.030 C 
ATOM     11  C   LIG    1        4.572   1.635   0.201  0.00  0.00    +0.010 C 
ATOM     12  C   LIG    1        3.390   1.635   1.185  0.00  0.00    +0.020 C 
ENDBRANCH   8   9
TORSDOF 1
ENDMDL
MODEL      651
REMARK  Name = ZINC000036179736
REMARK                            x       y       z     vdW  Elec       q    Type
REMARK                         _______ _______ _______ _____ _____    ______ ____
ROOT
ATOM      1  C   LIG    1        0.478  -0.505   3.808  0.00  0.00    -0.160 A 
ATOM      2  C   LIG    1        1.679  -1.211   3.927  0.00  0.00    +0.070 A 
ATOM      3  C   LIG    1        2.149  -1.560   5.176  0.00  0.00    +0.020 A 
ATOM      4  C   LIG    1        1.435  -1.214   6.310  0.00  0.00    +0.060 A 
ATOM      5  C   LIG    1        0.244  -0.515   6.200  0.00  0.00    -0.050 A 
ATOM      6 CL   LIG    1       -0.643  -0.086   7.629  0.00  0.00    -0.060 Cl
ATOM      7  C   LIG    1       -0.236  -0.153   4.958  0.00  0.00    +0.080 A 
ENDROOT
BRANCH   1   8
ATOM      8  C   LIG    1       -0.030  -0.130   2.478  0.00  0.00    +0.400 C 
ATOM      9  O   LIG    1       -1.069   0.487   2.378  0.00  0.00    -0.440 OA
BRANCH   8  10
ATOM     10  C   LIG    1        0.742  -0.511   1.242  0.00  0.00    +0.040 C 
BRANCH  10  12
ATOM     11  C   LIG    1       -0.019   1.526   0.010  0.00  0.00    +0.020 C 
ATOM     12  C   LIG    1        0.002  -0.004   0.002  0.00  0.00    -0.010 C 
ATOM     13  C   LIG    1        0.718  -0.497  -1.257  0.00  0.00    +0.030 C 
ENDBRANCH  10  12
ENDBRANCH   8  10
ENDBRANCH   1   8
TORSDOF 3
ENDMDL
MODEL      652
REMARK  Name = ZINC000037117010
REMARK                            x       y       z     vdW  Elec       q    Type
REMARK                         _______ _______ _______ _____ _____    ______ ____
ROOT
ATOM      1  C   LIG    1       -2.834  -4.088  -0.242  0.00  0.00    +0.390 C 
ATOM      2  O   LIG    1       -1.778  -4.676  -0.336  0.00  0.00    -0.450 OA
ENDROOT
BRANCH   1   3
ATOM      3  C   LIG    1       -4.099  -4.840  -0.258  0.00  0.00    -0.170 A 
ATOM      4  C   LIG    1       -5.319  -4.165  -0.156  0.00  0.00    +0.060 A 
ATOM      5  C   LIG    1       -6.500  -4.877  -0.171  0.00  0.00    +0.000 A 
ATOM      6  C   LIG    1       -6.479  -6.256  -0.286  0.00  0.00    +0.040 A 
ATOM      7  C   LIG    1       -5.276  -6.931  -0.388  0.00  0.00    +0.000 A 
ATOM      8  C   LIG    1       -4.087  -6.234  -0.380  0.00  0.00    +0.070 A 
ENDBRANCH   1   3
BRANCH   1   9
ATOM      9  C   LIG    1       -2.851  -2.587  -0.110  0.00  0.00    +0.030 C 
BRANCH   9  10
ATOM     10  C   LIG    1       -1.416  -2.058  -0.121  0.00  0.00    +0.030 C 
BRANCH  10  11
ATOM     11  C   LIG    1       -1.433  -0.534   0.013  0.00  0.00    +0.000 C 
BRANCH  11  13
ATOM     12  C   LIG    1       -0.019   1.526   0.010  0.00  0.00    +0.000 C 
ATOM     13  C   LIG    1        0.002  -0.004   0.002  0.00  0.00    -0.030 C 
ATOM     14  C   LIG    1        0.742  -0.511   1.242  0.00  0.00    +0.010 C 
ENDBRANCH  11  13
ENDBRANCH  10  11
ENDBRANCH   9  10
ENDBRANCH   1   9
TORSDOF 5
ENDMDL
MODEL      653
REMARK  Name = ZINC000001721897
REMARK                            x       y       z     vdW  Elec       q    Type
REMARK                         _______ _______ _______ _____ _____    ______ ____
ROOT
ATOM      1  C   LIG    1       -0.017   1.385   0.010  0.00  0.00    +0.020 A 
ATOM      2  C   LIG    1        1.151   2.079   0.002  0.00  0.00    +0.030 A 
ATOM      3  C   LIG    1        2.376   1.391  -0.013  0.00  0.00    -0.050 A 
ATOM      4  C   LIG    1        3.573   2.128  -0.022  0.00  0.00    +0.030 A 
ATOM      5  C   LIG    1        4.768   1.481  -0.035  0.00  0.00    +0.020 A 
ATOM      6  C   LIG    1        4.805   0.092  -0.040  0.00  0.00    +0.030 A 
ATOM      7  C   LIG    1        3.662  -0.658  -0.032  0.00  0.00    -0.080 A 
ATOM      8  C   LIG    1        3.848  -2.156  -0.039  0.00  0.00    +0.170 C 
ATOM      9  S   LIG    1        2.469  -2.924   0.861  0.00  0.00    -0.240 S 
ATOM     10  C   LIG    1        1.048  -2.212  -0.019  0.00  0.00    +0.170 C 
ATOM     11  C   LIG    1        1.174  -0.708  -0.013  0.00  0.00    -0.080 A 
ATOM     12  C   LIG    1        2.405  -0.036  -0.019  0.00  0.00    -0.030 A 
ATOM     13  C   LIG    1        0.002  -0.004   0.002  0.00  0.00    +0.030 A 
ENDROOT
TORSDOF 0
ENDMDL
MODEL      654
REMARK  Name = ZINC000000481021
REMARK                            x       y       z     vdW  Elec       q    Type
REMARK                         _______ _______ _______ _____ _____    ______ ____
ROOT
ATOM      1  C   LIG    1       -0.022   1.749   0.012  0.00  0.00    +0.000 A 
ATOM      2  C   LIG    1        1.202   2.244   0.003  0.00  0.00    +0.060 A 
ATOM      3  C   LIG    1        2.264   1.251  -0.013  0.00  0.00    +0.110 A 
ATOM      4  N   LIG    1        3.601   1.443  -0.024  0.00  0.00    -0.440 NA
ATOM      5  C   LIG    1        4.453   0.454  -0.037  0.00  0.00    +0.350 A 
ATOM      6  C   LIG    1        4.026  -0.878  -0.041  0.00  0.00    -0.200 A 
ATOM      7  S   LIG    1        4.928  -2.387  -0.057  0.00  0.00    +0.150 S 
ATOM      8  C   LIG    1        3.458  -3.343  -0.049  0.00  0.00    +0.000 A 
ATOM      9  C   LIG    1        2.384  -2.572  -0.035  0.00  0.00    +0.020 A 
ATOM     10  C   LIG    1        2.657  -1.150  -0.030  0.00  0.00    +0.000 A 
ATOM     11  C   LIG    1        1.759  -0.043  -0.015  0.00  0.00    -0.160 A 
ATOM     12  S   LIG    1        0.002  -0.004   0.002  0.00  0.00    +0.120 S 
ENDROOT
TORSDOF 0
ENDMDL
MODEL      655
REMARK  Name = ZINC000001620559
REMARK                            x       y       z     vdW  Elec       q    Type
REMARK                         _______ _______ _______ _____ _____    ______ ____
ROOT
ATOM      1  C   LIG    1       -0.022   1.751   0.012  0.00  0.00    -0.030 A 
ATOM      2  C   LIG    1        1.212   2.232   0.003  0.00  0.00    +0.030 A 
ATOM      3  C   LIG    1        2.236   1.275  -0.012  0.00  0.00    -0.090 A 
ATOM      4  C   LIG    1        1.765  -0.027  -0.015  0.00  0.00    +0.010 A 
ATOM      5  N   LIG    1        2.612  -1.071  -0.029  0.00  0.00    -0.470 NA
ATOM      6  C   LIG    1        3.905  -0.978  -0.042  0.00  0.00    +0.390 A 
ATOM      7  C   LIG    1        4.558   0.289  -0.041  0.00  0.00    -0.150 A 
ATOM      8  C   LIG    1        5.894   0.595  -0.053  0.00  0.00    -0.040 A 
ATOM      9  S   LIG    1        6.152   2.276  -0.046  0.00  0.00    +0.270 S 
ATOM     10  C   LIG    1        4.435   2.624  -0.027  0.00  0.00    -0.080 A 
ATOM     11  C   LIG    1        3.714   1.482  -0.025  0.00  0.00    -0.030 A 
ATOM     12  S   LIG    1        0.002  -0.004   0.002  0.00  0.00    +0.180 S 
ENDROOT
TORSDOF 0
ENDMDL
MODEL      656
REMARK  Name = ZINC000000984493
REMARK                            x       y       z     vdW  Elec       q    Type
REMARK                         _______ _______ _______ _____ _____    ______ ____
ROOT
ATOM      1  C   LIG    1       -0.022   1.751   0.012  0.00  0.00    -0.010 A 
ATOM      2  C   LIG    1        1.215   2.234   0.003  0.00  0.00    +0.020 A 
ATOM      3  C   LIG    1        2.235   1.280  -0.012  0.00  0.00    +0.000 A 
ATOM      4  C   LIG    1        1.763  -0.025  -0.015  0.00  0.00    -0.230 A 
ATOM      5  C   LIG    1        2.669  -1.101  -0.030  0.00  0.00    +0.370 A 
ATOM      6  N   LIG    1        3.957  -0.948  -0.041  0.00  0.00    -0.450 NA
ATOM      7  C   LIG    1        4.555   0.280  -0.040  0.00  0.00    +0.080 A 
ATOM      8  C   LIG    1        5.888   0.596  -0.051  0.00  0.00    -0.050 A 
ATOM      9  S   LIG    1        6.110   2.334  -0.043  0.00  0.00    +0.280 S 
ATOM     10  C   LIG    1        4.436   2.630  -0.026  0.00  0.00    -0.090 A 
ATOM     11  C   LIG    1        3.716   1.474  -0.025  0.00  0.00    -0.080 A 
ATOM     12  S   LIG    1        0.002  -0.004   0.002  0.00  0.00    +0.170 S 
ENDROOT
TORSDOF 0
ENDMDL
MODEL      657
REMARK  Name = ZINC000034745167
REMARK                            x       y       z     vdW  Elec       q    Type
REMARK                         _______ _______ _______ _____ _____    ______ ____
ROOT
ATOM      1  C   LIG    1       -0.017   1.364   0.009  0.00  0.00    +0.220 A 
ATOM      2  C   LIG    1        1.241   1.838   0.000  0.00  0.00    -0.050 A 
ATOM      3  C   LIG    1        2.134   0.680  -0.015  0.00  0.00    -0.090 A 
ATOM      4  C   LIG    1        3.532   0.525  -0.029  0.00  0.00    +0.000 A 
ATOM      5  C   LIG    1        4.075  -0.753  -0.042  0.00  0.00    -0.010 A 
ATOM      6  C   LIG    1        3.248  -1.864  -0.040  0.00  0.00    +0.030 A 
ATOM      7  C   LIG    1        1.876  -1.722  -0.026  0.00  0.00    -0.010 A 
ATOM      8  C   LIG    1        1.304  -0.454  -0.013  0.00  0.00    +0.090 A 
ATOM      9  N   LIG    1        0.002  -0.004   0.002  0.00  0.00    -0.600 N 
ATOM     10  H   LIG    1       -0.784  -0.572   0.006  0.00  0.00    +0.420 HD
ENDROOT
BRANCH   4  11
ATOM     11  C   LIG    1        4.416   1.714  -0.031  0.00  0.00    -0.040 A 
ATOM     12  C   LIG    1        4.199   2.746  -0.943  0.00  0.00    +0.020 A 
ATOM     13  C   LIG    1        5.026   3.851  -0.939  0.00  0.00    +0.000 A 
ATOM     14  C   LIG    1        6.068   3.935  -0.033  0.00  0.00    +0.000 A 
ATOM     15  C   LIG    1        6.288   2.914   0.874  0.00  0.00    +0.000 A 
ATOM     16  C   LIG    1        5.465   1.807   0.883  0.00  0.00    +0.010 A 
ENDBRANCH   4  11
TORSDOF 1
ENDMDL
MODEL      658
REMARK  Name = ZINC000005604493
REMARK                            x       y       z     vdW  Elec       q    Type
REMARK                         _______ _______ _______ _____ _____    ______ ____
ROOT
ATOM      1  C   LIG    1       -0.017   1.394   0.010  0.00  0.00    -0.020 A 
ATOM      2  C   LIG    1        1.281   1.815  -0.000  0.00  0.00    +0.040 A 
ATOM      3  N   LIG    1        2.087   0.704  -0.014  0.00  0.00    -0.550 N 
ATOM      4  H   LIG    1        3.056   0.707  -0.024  0.00  0.00    +0.410 HD
ATOM      5  C   LIG    1        1.297  -0.402  -0.011  0.00  0.00    +0.030 A 
ATOM      6  C   LIG    1        1.736  -1.847  -0.019  0.00  0.00    +0.100 C 
ATOM      7  C   LIG    1        0.546  -2.716   0.406  0.00  0.00    +0.030 C 
ATOM      8  C   LIG    1       -0.686  -2.335  -0.420  0.00  0.00    +0.010 C 
ATOM      9  C   LIG    1       -1.176  -0.945   0.005  0.00  0.00    +0.090 C 
ATOM     10  C   LIG    1        0.002  -0.004   0.002  0.00  0.00    -0.160 A 
ENDROOT
BRANCH   2  11
ATOM     11  C   LIG    1        1.739   3.221   0.003  0.00  0.00    -0.010 A 
ATOM     12  C   LIG    1        0.808   4.261   0.024  0.00  0.00    +0.020 A 
ATOM     13  C   LIG    1        1.242   5.571   0.028  0.00  0.00    +0.020 A 
ATOM     14  C   LIG    1        2.596   5.854   0.010  0.00  0.00    -0.010 A 
ATOM     15  C   LIG    1        3.524   4.828  -0.011  0.00  0.00    +0.010 A 
ATOM     16  C   LIG    1        3.103   3.514  -0.008  0.00  0.00    -0.020 A 
ENDBRANCH   2  11
TORSDOF 1
ENDMDL
MODEL      659
REMARK  Name = ZINC000001023862
REMARK                            x       y       z     vdW  Elec       q    Type
REMARK                         _______ _______ _______ _____ _____    ______ ____
ROOT
ATOM      1  C   LIG    1       -0.017   1.403   0.010  0.00  0.00    -0.040 A 
ATOM      2  C   LIG    1        1.299   1.827  -0.001  0.00  0.00    +0.040 A 
ATOM      3  C   LIG    1        1.879   3.115   0.001  0.00  0.00    +0.060 A 
ATOM      4  C   LIG    1        3.231   3.236  -0.011  0.00  0.00    +0.000 A 
ATOM      5  C   LIG    1        4.035   2.080  -0.025  0.00  0.00    +0.010 A 
ATOM      6  C   LIG    1        3.473   0.856  -0.027  0.00  0.00    +0.200 A 
ATOM      7  N   LIG    1        2.108   0.711  -0.014  0.00  0.00    -0.340 N 
ATOM      8  C   LIG    1        1.319  -0.399  -0.013  0.00  0.00    +0.130 A 
ATOM      9  C   LIG    1        0.002  -0.004   0.002  0.00  0.00    -0.080 A 
ENDROOT
BRANCH   9  10
ATOM     10  C   LIG    1       -1.183  -0.898   0.009  0.00  0.00    -0.010 A 
ATOM     11  C   LIG    1       -1.015  -2.281   0.006  0.00  0.00    +0.000 A 
ATOM     12  C   LIG    1       -2.120  -3.108   0.012  0.00  0.00    +0.000 A 
ATOM     13  C   LIG    1       -3.393  -2.566   0.021  0.00  0.00    +0.000 A 
ATOM     14  C   LIG    1       -3.565  -1.194   0.025  0.00  0.00    +0.000 A 
ATOM     15  C   LIG    1       -2.467  -0.357   0.025  0.00  0.00    +0.010 A 
ENDBRANCH   9  10
TORSDOF 1
ENDMDL
MODEL      660
REMARK  Name = ZINC000001679972
REMARK                            x       y       z     vdW  Elec       q    Type
REMARK                         _______ _______ _______ _____ _____    ______ ____
ROOT
ATOM      1  S   LIG    1        3.939  -0.827  -0.041  0.00  0.00    -0.010 S 
ENDROOT
BRANCH   1   5
ATOM      2  C   LIG    1       -0.017   1.378  -0.006  0.00  0.00    +0.010 A 
ATOM      3  C   LIG    1        0.002  -0.005  -0.026  0.00  0.00    +0.020 A 
ATOM      4  C   LIG    1        1.206  -0.680  -0.036  0.00  0.00    +0.000 A 
ATOM      5  C   LIG    1        2.400   0.031  -0.027  0.00  0.00    -0.100 A 
ATOM      6  C   LIG    1        2.377   1.420  -0.008  0.00  0.00    +0.030 A 
ATOM      7  C   LIG    1        1.169   2.089   0.003  0.00  0.00    +0.030 A 
ENDBRANCH   1   5
BRANCH   1   8
ATOM      8  C   LIG    1        3.454  -2.514   0.105  0.00  0.00    -0.140 A 
ATOM      9  C   LIG    1        3.218  -3.066   1.358  0.00  0.00    +0.060 A 
ATOM     10  C   LIG    1        2.838  -4.389   1.468  0.00  0.00    +0.000 A 
ATOM     11  C   LIG    1        2.692  -5.165   0.333  0.00  0.00    +0.040 A 
ATOM     12  C   LIG    1        2.926  -4.619  -0.916  0.00  0.00    +0.000 A 
ATOM     13  C   LIG    1        3.300  -3.295  -1.034  0.00  0.00    +0.060 A 
ENDBRANCH   1   8
TORSDOF 2
ENDMDL
MODEL      661
REMARK  Name = ZINC000078239350
REMARK                            x       y       z     vdW  Elec       q    Type
REMARK                         _______ _______ _______ _____ _____    ______ ____
ROOT
ATOM      1  C   LIG    1       -0.016   1.357   0.009  0.00  0.00    +0.000 A 
ATOM      2  C   LIG    1        1.168   2.091   0.002  0.00  0.00    +0.000 A 
ATOM      3  C   LIG    1        2.378   1.468  -0.013  0.00  0.00    +0.030 A 
ATOM      4  C   LIG    1        2.437   0.064  -0.021  0.00  0.00    -0.050 A 
ATOM      5  C   LIG    1        1.232  -0.682  -0.013  0.00  0.00    -0.050 A 
ATOM      6  C   LIG    1        1.292  -2.087  -0.021  0.00  0.00    +0.020 A 
ATOM      7  C   LIG    1        2.502  -2.709  -0.036  0.00  0.00    +0.010 A 
ATOM      8  C   LIG    1        3.686  -1.976  -0.043  0.00  0.00    +0.000 A 
ATOM      9  C   LIG    1        3.668  -0.615  -0.036  0.00  0.00    -0.040 A 
ATOM     10  C   LIG    1        0.002  -0.004   0.002  0.00  0.00    +0.020 A 
ENDROOT
BRANCH   9  11
ATOM     11  C   LIG    1        4.960   0.160  -0.046  0.00  0.00    -0.010 C 
ATOM     12  C   LIG    1        6.258  -0.628   0.141  0.00  0.00    +0.030 C 
ATOM     13  C   LIG    1        5.903  -0.053  -1.232  0.00  0.00    +0.030 C 
ENDBRANCH   9  11
TORSDOF 1
ENDMDL
MODEL      662
REMARK  Name = ZINC000003861058
REMARK                            x       y       z     vdW  Elec       q    Type
REMARK                         _______ _______ _______ _____ _____    ______ ____
ROOT
ATOM      1  C   LIG    1       -0.017   1.382   0.010  0.00  0.00    +0.060 A 
ATOM      2  C   LIG    1        1.161   2.100   0.002  0.00  0.00    +0.030 A 
ATOM      3  C   LIG    1        2.381   1.436  -0.013  0.00  0.00    +0.080 A 
ATOM      4  C   LIG    1        2.397   0.034  -0.021  0.00  0.00    -0.120 A 
ATOM      5  C   LIG    1        3.822  -0.349  -0.036  0.00  0.00    -0.120 A 
ATOM      6  C   LIG    1        4.539   0.855  -0.037  0.00  0.00    +0.080 A 
ATOM      7  C   LIG    1        5.928   0.817  -0.051  0.00  0.00    +0.030 A 
ATOM      8  C   LIG    1        6.586  -0.394  -0.064  0.00  0.00    +0.060 A 
ATOM      9  C   LIG    1        5.875  -1.584  -0.064  0.00  0.00    -0.010 A 
ATOM     10  C   LIG    1        4.496  -1.566  -0.049  0.00  0.00    +0.070 A 
ATOM     11  C   LIG    1        1.204  -0.680  -0.013  0.00  0.00    +0.070 A 
ATOM     12  O   LIG    1        3.658   1.879  -0.023  0.00  0.00    -0.200 OA
ATOM     13  C   LIG    1        0.002  -0.004   0.002  0.00  0.00    -0.010 A 
ENDROOT
TORSDOF 0
ENDMDL
MODEL      663
REMARK  Name = ZINC000019772243
REMARK                            x       y       z     vdW  Elec       q    Type
REMARK                         _______ _______ _______ _____ _____    ______ ____
ROOT
ATOM      1  C   LIG    1       -3.472  -0.050   1.336  0.00  0.00    +0.230 A 
ATOM      2  C   LIG    1       -4.242  -0.296   0.207  0.00  0.00    -0.070 A 
ATOM      3  C   LIG    1       -5.618  -0.185   0.273  0.00  0.00    +0.070 A 
ATOM      4  C   LIG    1       -6.228   0.172   1.460  0.00  0.00    -0.040 A 
ATOM      5  C   LIG    1       -5.464   0.419   2.588  0.00  0.00    +0.020 A 
ATOM      6 CL   LIG    1       -6.235   0.867   4.077  0.00  0.00    -0.070 Cl
ATOM      7  C   LIG    1       -4.088   0.303   2.530  0.00  0.00    -0.060 A 
ENDROOT
BRANCH   1   8
ATOM      8  N   LIG    1       -2.082  -0.162   1.273  0.00  0.00    -0.740 N 
ATOM      9  H   LIG    1       -1.545   0.006   2.063  0.00  0.00    +0.400 HD
BRANCH   8  10
ATOM     10  C   LIG    1       -1.433  -0.534   0.013  0.00  0.00    +0.230 C 
ATOM     11  C   LIG    1       -1.416  -2.058  -0.121  0.00  0.00    +0.020 C 
BRANCH  10  13
ATOM     12  C   LIG    1       -0.019   1.526   0.010  0.00  0.00    +0.030 C 
ATOM     13  C   LIG    1        0.002  -0.004   0.002  0.00  0.00    +0.020 C 
ENDBRANCH  10  13
ENDBRANCH   8  10
ENDBRANCH   1   8
TORSDOF 3
ENDMDL
MODEL      664
REMARK  Name = ZINC000019900676
REMARK                            x       y       z     vdW  Elec       q    Type
REMARK                         _______ _______ _______ _____ _____    ______ ____
ROOT
ATOM      1  C   LIG    1        0.583   0.033  -3.674  0.00  0.00    +0.240 A 
ATOM      2  C   LIG    1        1.951  -0.190  -3.781  0.00  0.00    -0.080 A 
ATOM      3  C   LIG    1        2.584  -0.045  -5.000  0.00  0.00    +0.070 A 
ATOM      4  C   LIG    1        1.860   0.323  -6.118  0.00  0.00    -0.070 A 
ATOM      5  C   LIG    1        0.491   0.548  -6.019  0.00  0.00    -0.040 A 
ATOM      6  C   LIG    1       -0.148   0.396  -4.796  0.00  0.00    -0.060 A 
ENDROOT
BRANCH   1   7
ATOM      7  N   LIG    1       -0.055  -0.114  -2.441  0.00  0.00    -0.740 N 
ATOM      8  H   LIG    1       -1.010   0.038  -2.368  0.00  0.00    +0.400 HD
BRANCH   7   9
ATOM      9  C   LIG    1        0.718  -0.497  -1.257  0.00  0.00    +0.230 C 
ATOM     10  C   LIG    1        0.849  -2.021  -1.205  0.00  0.00    +0.010 C 
BRANCH   9  12
ATOM     11  C   LIG    1       -0.019   1.526   0.010  0.00  0.00    +0.020 C 
ATOM     12  C   LIG    1        0.002  -0.004   0.002  0.00  0.00    +0.020 C 
ENDBRANCH   9  12
ENDBRANCH   7   9
ENDBRANCH   1   7
BRANCH   5  13
ATOM     13  S   LIG    1       -0.431   1.017  -7.445  0.00  0.00    -0.120 S 
ATOM     14  C   LIG    1        0.829   1.067  -8.748  0.00  0.00    +0.130 C 
ENDBRANCH   5  13
TORSDOF 4
ENDMDL
MODEL      665
REMARK  Name = ZINC000001758806
REMARK                            x       y       z     vdW  Elec       q    Type
REMARK                         _______ _______ _______ _____ _____    ______ ____
ROOT
ATOM      1  C   LIG    1       -0.016   1.357   0.009  0.00  0.00    +0.000 A 
ATOM      2  C   LIG    1        1.168   2.091   0.002  0.00  0.00    +0.000 A 
ATOM      3  C   LIG    1        2.379   1.468  -0.014  0.00  0.00    +0.020 A 
ATOM      4  C   LIG    1        2.437   0.064  -0.024  0.00  0.00    -0.050 A 
ATOM      5  C   LIG    1        1.234  -0.680  -0.013  0.00  0.00    -0.050 A 
ATOM      6  C   LIG    1        1.299  -2.084  -0.019  0.00  0.00    +0.020 A 
ATOM      7  C   LIG    1        2.511  -2.694  -0.032  0.00  0.00    +0.010 A 
ATOM      8  C   LIG    1        3.707  -1.962  -0.044  0.00  0.00    -0.080 A 
ATOM      9  C   LIG    1        4.994  -2.747  -0.049  0.00  0.00    +0.070 C 
ATOM     10  C   LIG    1        6.160  -1.871  -0.503  0.00  0.00    +0.020 C 
ATOM     11  C   LIG    1        6.147  -0.584   0.330  0.00  0.00    +0.020 C 
ATOM     12  C   LIG    1        4.927   0.238  -0.079  0.00  0.00    +0.080 C 
ATOM     13  C   LIG    1        3.680  -0.606  -0.046  0.00  0.00    -0.070 A 
ATOM     14  C   LIG    1        0.002  -0.004   0.002  0.00  0.00    +0.020 A 
ENDROOT
TORSDOF 0
ENDMDL
MODEL      666
REMARK  Name = ZINC000000066217
REMARK                            x       y       z     vdW  Elec       q    Type
REMARK                         _______ _______ _______ _____ _____    ______ ____
ROOT
ATOM      1  C   LIG    1        1.528  -1.994  -0.024  0.00  0.00    +0.140 A 
ATOM      2  C   LIG    1        0.595  -2.983  -0.025  0.00  0.00    -0.020 A 
ATOM      3  C   LIG    1        1.319  -4.252  -0.037  0.00  0.00    -0.110 A 
ATOM      4  C   LIG    1        0.921  -5.592  -0.044  0.00  0.00    +0.050 A 
ATOM      5  C   LIG    1        1.866  -6.580  -0.055  0.00  0.00    -0.030 A 
ATOM      6  C   LIG    1        3.217  -6.263  -0.059  0.00  0.00    +0.040 A 
ATOM      7  C   LIG    1        3.631  -4.948  -0.053  0.00  0.00    -0.010 A 
ATOM      8  C   LIG    1        2.689  -3.926  -0.042  0.00  0.00    +0.110 A 
ATOM      9  N   LIG    1        2.787  -2.551  -0.040  0.00  0.00    -0.590 N 
ATOM     10  H   LIG    1        3.618  -2.051  -0.046  0.00  0.00    +0.410 HD
ENDROOT
BRANCH   1  14
ATOM     11  C   LIG    1       -0.017   1.374   0.010  0.00  0.00    +0.020 A 
ATOM     12  C   LIG    1        1.186   1.958   0.001  0.00  0.00    -0.030 A 
ATOM     13  S   LIG    1        2.444   0.729  -0.017  0.00  0.00    +0.110 S 
ATOM     14  C   LIG    1        1.237  -0.551  -0.013  0.00  0.00    -0.130 A 
ATOM     15  C   LIG    1        0.002  -0.004   0.002  0.00  0.00    +0.040 A 
ENDBRANCH   1  14
TORSDOF 1
ENDMDL
MODEL      667
REMARK  Name = ZINC000000388868
REMARK                            x       y       z     vdW  Elec       q    Type
REMARK                         _______ _______ _______ _____ _____    ______ ____
ROOT
ATOM      1  C   LIG    1        1.524  -2.001  -0.023  0.00  0.00    -0.050 A 
ATOM      2  C   LIG    1        0.596  -3.019  -0.025  0.00  0.00    +0.140 A 
ATOM      3  N   LIG    1        1.257  -4.211  -0.036  0.00  0.00    -0.340 N 
ATOM      4  C   LIG    1        0.796  -5.504  -0.042  0.00  0.00    +0.200 A 
ATOM      5  C   LIG    1        1.656  -6.540  -0.052  0.00  0.00    +0.010 A 
ATOM      6  C   LIG    1        3.046  -6.317  -0.057  0.00  0.00    +0.010 A 
ATOM      7  C   LIG    1        3.523  -5.045  -0.051  0.00  0.00    +0.060 A 
ATOM      8  C   LIG    1        2.613  -3.965  -0.041  0.00  0.00    +0.040 A 
ATOM      9  C   LIG    1        2.802  -2.595  -0.039  0.00  0.00    -0.040 A 
ENDROOT
BRANCH   1  13
ATOM     10  C   LIG    1       -0.017   1.377   0.010  0.00  0.00    +0.010 A 
ATOM     11  C   LIG    1        1.185   1.959   0.001  0.00  0.00    -0.050 A 
ATOM     12  S   LIG    1        2.441   0.728  -0.017  0.00  0.00    +0.120 S 
ATOM     13  C   LIG    1        1.233  -0.550  -0.013  0.00  0.00    -0.100 A 
ATOM     14  C   LIG    1        0.002  -0.004   0.002  0.00  0.00    +0.000 A 
ENDBRANCH   1  13
TORSDOF 1
ENDMDL
MODEL      668
REMARK  Name = ZINC000002392376
REMARK                            x       y       z     vdW  Elec       q    Type
REMARK                         _______ _______ _______ _____ _____    ______ ____
ROOT
ATOM      1  C   LIG    1       -0.018   1.503   0.010  0.00  0.00    +0.100 C 
ATOM      2  C   LIG    1        0.002  -0.004   0.002  0.00  0.00    -0.120 A 
ATOM      3  C   LIG    1        0.006  -0.686  -1.200  0.00  0.00    +0.050 A 
ATOM      4  C   LIG    1        0.025  -2.067  -1.214  0.00  0.00    +0.010 A 
ATOM      5  C   LIG    1        0.041  -2.774  -0.014  0.00  0.00    +0.000 A 
ATOM      6  C   LIG    1        0.037  -2.083   1.196  0.00  0.00    +0.000 A 
ATOM      7  C   LIG    1        0.023  -0.701   1.200  0.00  0.00    +0.100 A 
ATOM      8  F   LIG    1        0.020  -0.029   2.372  0.00  0.00    -0.140 F 
ENDROOT
BRANCH   5   9
ATOM      9  C   LIG    1        0.062  -4.257  -0.024  0.00  0.00    -0.070 A 
ATOM     10  C   LIG    1        0.072  -4.978  -1.160  0.00  0.00    -0.030 A 
ATOM     11  S   LIG    1        0.097  -6.692  -0.770  0.00  0.00    +0.120 S 
ATOM     12  C   LIG    1        0.092  -6.336   0.952  0.00  0.00    -0.040 A 
ATOM     13  C   LIG    1        0.078  -5.020   1.143  0.00  0.00    +0.010 A 
ENDBRANCH   5   9
TORSDOF 1
ENDMDL
MODEL      669
REMARK  Name = ZINC000020085426
REMARK                            x       y       z     vdW  Elec       q    Type
REMARK                         _______ _______ _______ _____ _____    ______ ____
ROOT
ATOM      1  N   LIG    1        1.316  -2.496  -2.534  0.00  0.00    -0.740 N 
ATOM      2  H   LIG    1        2.019  -1.960  -2.934  0.00  0.00    +0.400 HD
ENDROOT
BRANCH   1   3
ATOM      3  C   LIG    1        0.958  -3.718  -3.107  0.00  0.00    +0.220 A 
ATOM      4  C   LIG    1       -0.052  -4.484  -2.539  0.00  0.00    -0.080 A 
ATOM      5  C   LIG    1       -0.404  -5.692  -3.109  0.00  0.00    +0.050 A 
ATOM      6  C   LIG    1        0.248  -6.139  -4.244  0.00  0.00    -0.060 A 
ATOM      7  C   LIG    1        1.254  -5.379  -4.812  0.00  0.00    +0.050 A 
ATOM      8  C   LIG    1        1.607  -4.168  -4.250  0.00  0.00    -0.080 A 
ENDBRANCH   1   3
BRANCH   1   9
ATOM      9  C   LIG    1        0.630  -2.023  -1.329  0.00  0.00    +0.230 C 
ATOM     10  C   LIG    1        1.295  -2.631  -0.092  0.00  0.00    +0.020 C 
BRANCH   9  11
ATOM     11  C   LIG    1        0.718  -0.497  -1.257  0.00  0.00    -0.020 C 
ATOM     12  C   LIG    1        2.187  -0.073  -1.207  0.00  0.00    +0.020 C 
BRANCH  11  14
ATOM     13  C   LIG    1       -0.019   1.526   0.010  0.00  0.00    +0.020 C 
ATOM     14  C   LIG    1        0.002  -0.004   0.002  0.00  0.00    +0.010 C 
ENDBRANCH  11  14
ENDBRANCH   9  11
ENDBRANCH   1   9
TORSDOF 4
ENDMDL
MODEL      670
REMARK  Name = ZINC000020018926
REMARK                            x       y       z     vdW  Elec       q    Type
REMARK                         _______ _______ _______ _____ _____    ______ ____
ROOT
ATOM      1  N   LIG    1        1.316  -2.496  -2.534  0.00  0.00    -0.740 N 
ATOM      2  H   LIG    1        2.019  -1.960  -2.934  0.00  0.00    +0.400 HD
ENDROOT
BRANCH   1   3
ATOM      3  C   LIG    1        0.958  -3.720  -3.108  0.00  0.00    +0.190 A 
ATOM      4  C   LIG    1       -0.051  -4.485  -2.541  0.00  0.00    -0.050 A 
ATOM      5  C   LIG    1       -0.404  -5.694  -3.110  0.00  0.00    +0.050 A 
ATOM      6  C   LIG    1        0.247  -6.142  -4.244  0.00  0.00    -0.020 A 
ATOM      7  C   LIG    1        1.254  -5.383  -4.814  0.00  0.00    +0.030 A 
ATOM      8  C   LIG    1        1.608  -4.170  -4.253  0.00  0.00    +0.010 A 
ATOM      9  F   LIG    1        2.591  -3.428  -4.809  0.00  0.00    -0.150 F 
ENDBRANCH   1   3
BRANCH   1  10
ATOM     10  C   LIG    1        0.630  -2.023  -1.329  0.00  0.00    +0.230 C 
ATOM     11  C   LIG    1        1.295  -2.631  -0.092  0.00  0.00    +0.020 C 
BRANCH  10  12
ATOM     12  C   LIG    1        0.718  -0.497  -1.257  0.00  0.00    -0.020 C 
ATOM     13  C   LIG    1        2.187  -0.073  -1.207  0.00  0.00    +0.020 C 
BRANCH  12  15
ATOM     14  C   LIG    1       -0.019   1.526   0.010  0.00  0.00    +0.010 C 
ATOM     15  C   LIG    1        0.002  -0.004   0.002  0.00  0.00    +0.010 C 
ENDBRANCH  12  15
ENDBRANCH  10  12
ENDBRANCH   1  10
TORSDOF 4
ENDMDL
MODEL      671
REMARK  Name = ZINC000020550986
REMARK                            x       y       z     vdW  Elec       q    Type
REMARK                         _______ _______ _______ _____ _____    ______ ____
ROOT
ATOM      1  N   LIG    1        1.316  -2.496  -2.534  0.00  0.00    -0.740 N 
ATOM      2  H   LIG    1        2.019  -1.960  -2.934  0.00  0.00    +0.400 HD
ENDROOT
BRANCH   1   3
ATOM      3  C   LIG    1        0.958  -3.718  -3.107  0.00  0.00    +0.220 A 
ATOM      4  C   LIG    1       -0.052  -4.484  -2.539  0.00  0.00    -0.080 A 
ATOM      5  C   LIG    1       -0.404  -5.692  -3.109  0.00  0.00    +0.040 A 
ATOM      6  C   LIG    1        0.248  -6.139  -4.244  0.00  0.00    -0.060 A 
ATOM      7  C   LIG    1        1.254  -5.379  -4.812  0.00  0.00    +0.050 A 
ATOM      8  C   LIG    1        1.607  -4.168  -4.250  0.00  0.00    -0.170 A 
ATOM      9  C   LIG    1        2.704  -3.340  -4.870  0.00  0.00    +0.080 C 
ENDBRANCH   1   3
BRANCH   1  10
ATOM     10  C   LIG    1        0.630  -2.023  -1.329  0.00  0.00    +0.230 C 
ATOM     11  C   LIG    1        1.295  -2.631  -0.092  0.00  0.00    +0.020 C 
BRANCH  10  12
ATOM     12  C   LIG    1        0.718  -0.497  -1.257  0.00  0.00    -0.020 C 
ATOM     13  C   LIG    1        2.187  -0.073  -1.207  0.00  0.00    +0.020 C 
BRANCH  12  15
ATOM     14  C   LIG    1       -0.019   1.526   0.010  0.00  0.00    +0.020 C 
ATOM     15  C   LIG    1        0.002  -0.004   0.002  0.00  0.00    +0.010 C 
ENDBRANCH  12  15
ENDBRANCH  10  12
ENDBRANCH   1  10
TORSDOF 4
ENDMDL
MODEL      672
REMARK  Name = ZINC000019879323
REMARK                            x       y       z     vdW  Elec       q    Type
REMARK                         _______ _______ _______ _____ _____    ______ ____
ROOT
ATOM      1  N   LIG    1       -0.932  -2.547   1.293  0.00  0.00    -0.740 N 
ATOM      2  H   LIG    1       -1.019  -1.997   2.087  0.00  0.00    +0.400 HD
ENDROOT
BRANCH   1   3
ATOM      3  C   LIG    1       -0.342  -3.810   1.380  0.00  0.00    +0.220 A 
ATOM      4  C   LIG    1       -0.212  -4.597   0.243  0.00  0.00    -0.080 A 
ATOM      5  C   LIG    1        0.373  -5.845   0.332  0.00  0.00    +0.050 A 
ATOM      6  C   LIG    1        0.828  -6.312   1.552  0.00  0.00    -0.060 A 
ATOM      7  C   LIG    1        0.700  -5.531   2.686  0.00  0.00    +0.050 A 
ATOM      8  C   LIG    1        0.122  -4.279   2.603  0.00  0.00    -0.080 A 
ENDBRANCH   1   3
BRANCH   1   9
ATOM      9  C   LIG    1       -1.420  -2.054   0.003  0.00  0.00    +0.230 C 
ATOM     10  C   LIG    1       -2.839  -2.572  -0.237  0.00  0.00    +0.010 C 
BRANCH   9  11
ATOM     11  C   LIG    1       -1.430  -0.524   0.013  0.00  0.00    +0.030 C 
BRANCH  11  13
ATOM     12  C   LIG    1        0.799  -0.379  -1.106  0.00  0.00    +0.010 C 
ATOM     13  C   LIG    1        0.003  -0.005   0.146  0.00  0.00    -0.030 C 
ATOM     14  C   LIG    1       -0.018   1.517   0.301  0.00  0.00    +0.000 C 
ENDBRANCH  11  13
ENDBRANCH   9  11
ENDBRANCH   1   9
TORSDOF 4
ENDMDL
MODEL      673
REMARK  Name = ZINC000039203327
REMARK                            x       y       z     vdW  Elec       q    Type
REMARK                         _______ _______ _______ _____ _____    ______ ____
ROOT
ATOM      1  C   LIG    1       -0.008  -0.765   2.462  0.00  0.00    -0.170 A 
ATOM      2  C   LIG    1        0.664  -1.346   3.625  0.00  0.00    -0.010 A 
ATOM      3  C   LIG    1        2.024  -1.671   3.596  0.00  0.00    +0.040 A 
ATOM      4  C   LIG    1        2.612  -2.211   4.702  0.00  0.00    +0.020 A 
ATOM      5  C   LIG    1        1.876  -2.444   5.861  0.00  0.00    +0.010 A 
ATOM      6  C   LIG    1        0.550  -2.140   5.923  0.00  0.00    +0.030 A 
ATOM      7  C   LIG    1       -0.088  -1.581   4.802  0.00  0.00    -0.070 A 
ATOM      8  C   LIG    1       -1.454  -1.253   4.826  0.00  0.00    +0.070 A 
ATOM      9  C   LIG    1       -2.059  -0.713   3.733  0.00  0.00    -0.010 A 
ATOM     10  C   LIG    1       -1.363  -0.459   2.560  0.00  0.00    +0.090 A 
ENDROOT
BRANCH   1  11
ATOM     11  C   LIG    1        0.731  -0.503   1.223  0.00  0.00    +0.400 C 
ATOM     12  O   LIG    1        1.931  -0.677   1.184  0.00  0.00    -0.450 OA
BRANCH  11  14
ATOM     13  C   LIG    1       -0.036   1.511  -0.003  0.00  0.00    +0.050 C 
ATOM     14  C   LIG    1       -0.000  -0.018  -0.002  0.00  0.00    -0.040 C 
ATOM     15  C   LIG    1        0.723  -0.512  -1.257  0.00  0.00    +0.060 C 
ENDBRANCH  11  14
ENDBRANCH   1  11
TORSDOF 2
ENDMDL
MODEL      674
REMARK  Name = ZINC000001689945
REMARK                            x       y       z     vdW  Elec       q    Type
REMARK                         _______ _______ _______ _____ _____    ______ ____
ROOT
ATOM      1  C   LIG    1        0.002  -0.004   0.002  0.00  0.00    +0.210 C 
ENDROOT
BRANCH   1   2
ATOM      2  C   LIG    1        0.742  -0.511   1.242  0.00  0.00    -0.040 C 
ATOM      3  C   LIG    1        2.136   0.118   1.296  0.00  0.00    +0.000 C 
ATOM      4  C   LIG    1        2.876  -0.389   2.536  0.00  0.00    +0.000 C 
ATOM      5  C   LIG    1        2.092  -0.002   3.791  0.00  0.00    +0.000 C 
ATOM      6  C   LIG    1        0.698  -0.630   3.737  0.00  0.00    +0.000 C 
ATOM      7  C   LIG    1       -0.042  -0.124   2.497  0.00  0.00    +0.020 C 
ENDBRANCH   1   2
BRANCH   1   8
ATOM      8  C   LIG    1        0.718  -0.497  -1.257  0.00  0.00    -0.050 C 
ATOM      9  C   LIG    1        0.739  -2.027  -1.265  0.00  0.00    +0.010 C 
ATOM     10  C   LIG    1        1.455  -2.521  -2.524  0.00  0.00    +0.000 C 
ATOM     11  C   LIG    1        0.715  -2.014  -3.764  0.00  0.00    +0.000 C 
ATOM     12  C   LIG    1        0.694  -0.484  -3.755  0.00  0.00    +0.000 C 
ATOM     13  C   LIG    1       -0.022   0.009  -2.496  0.00  0.00    +0.020 C 
ENDBRANCH   1   8
BRANCH   1  14
ATOM     14  O   LIG    1       -0.017   1.425   0.010  0.00  0.00    -0.560 OA
ATOM     15  H   LIG    1        0.861   1.830   0.004  0.00  0.00    +0.370 HD
ENDBRANCH   1  14
TORSDOF 3
ENDMDL
MODEL      675
REMARK  Name = ZINC000071785828
REMARK                            x       y       z     vdW  Elec       q    Type
REMARK                         _______ _______ _______ _____ _____    ______ ____
ROOT
ATOM      1  C   LIG    1        0.044   1.526  -0.033  0.00  0.00    +0.020 C 
ATOM      2  C   LIG    1        0.038  -0.004  -0.023  0.00  0.00    -0.060 C 
ATOM      3  C   LIG    1       -1.387  -0.582   0.093  0.00  0.00    +0.010 C 
ATOM      4  C   LIG    1       -1.533  -0.945   1.591  0.00  0.00    +0.000 C 
ATOM      5  C   LIG    1       -0.130  -1.494   1.948  0.00  0.00    +0.010 C 
ATOM      6  C   LIG    1        0.716  -0.607  -1.290  0.00  0.00    +0.000 C 
ATOM      7  C   LIG    1        1.123  -2.030  -0.745  0.00  0.00    +0.010 C 
ATOM      8  C   LIG    1        1.919  -1.500   0.499  0.00  0.00    +0.000 C 
ATOM      9  C   LIG    1        2.913  -0.503  -0.172  0.00  0.00    +0.000 C 
ATOM     10  C   LIG    1        2.124   0.097  -1.357  0.00  0.00    +0.000 C 
ATOM     11  C   LIG    1        0.844  -0.590   1.166  0.00  0.00    -0.060 C 
ATOM     12  C   LIG    1        1.457   0.501   2.048  0.00  0.00    +0.030 C 
ENDROOT
TORSDOF 0
ENDMDL
MODEL      676
REMARK  Name = ZINC000040449061
REMARK                            x       y       z     vdW  Elec       q    Type
REMARK                         _______ _______ _______ _____ _____    ______ ____
ROOT
ATOM      1  C   LIG    1        1.199   1.933   0.001  0.00  0.00    -0.330 A 
ATOM      2  C   LIG    1        1.312   3.300   0.013  0.00  0.00    +0.100 A 
ATOM      3  C   LIG    1        2.612   3.736   0.001  0.00  0.00    -0.120 A 
ATOM      4  C   LIG    1        3.538   2.768  -0.019  0.00  0.00    -0.060 A 
ATOM      5  S   LIG    1        2.808   1.225  -0.018  0.00  0.00    +0.250 S 
ENDROOT
BRANCH   3   6
ATOM      6  C   LIG    1        2.974   5.199   0.011  0.00  0.00    +0.050 C 
ATOM      7  C   LIG    1        3.812   5.509   1.254  0.00  0.00    +0.010 C 
ATOM      8  C   LIG    1        4.179   6.994   1.264  0.00  0.00    +0.000 C 
ATOM      9  C   LIG    1        4.986   7.329   0.008  0.00  0.00    +0.000 C 
ATOM     10  C   LIG    1        4.149   7.019  -1.234  0.00  0.00    +0.000 C 
ATOM     11  C   LIG    1        3.781   5.534  -1.245  0.00  0.00    +0.010 C 
ENDBRANCH   3   6
BRANCH   1  13
ATOM     12  O   LIG    1        0.002  -0.004   0.002  0.00  0.00    -0.470 OA
ATOM     13  C   LIG    1       -0.014   1.210   0.009  0.00  0.00    +0.520 C 
ENDBRANCH   1  13
TORSDOF 2
ENDMDL
MODEL      677
REMARK  Name = ZINC000037216373
REMARK                            x       y       z     vdW  Elec       q    Type
REMARK                         _______ _______ _______ _____ _____    ______ ____
ROOT
ATOM      1  N   LIG    1       -2.105  -0.148  -1.230  0.00  0.00    -0.740 N 
ATOM      2  H   LIG    1       -1.584   0.029  -2.029  0.00  0.00    +0.400 HD
ENDROOT
BRANCH   1   3
ATOM      3  C   LIG    1       -3.497  -0.036  -1.266  0.00  0.00    +0.220 A 
ATOM      4  C   LIG    1       -4.245  -0.283  -0.122  0.00  0.00    -0.080 A 
ATOM      5  C   LIG    1       -5.621  -0.170  -0.161  0.00  0.00    +0.040 A 
ATOM      6  C   LIG    1       -6.254   0.189  -1.336  0.00  0.00    -0.060 A 
ATOM      7  C   LIG    1       -5.513   0.435  -2.478  0.00  0.00    +0.050 A 
ATOM      8  C   LIG    1       -4.136   0.330  -2.445  0.00  0.00    -0.170 A 
ATOM      9  C   LIG    1       -3.329   0.599  -3.688  0.00  0.00    +0.090 C 
ENDBRANCH   1   3
BRANCH   1  10
ATOM     10  C   LIG    1       -1.433  -0.534   0.013  0.00  0.00    +0.240 C 
BRANCH  10  11
ATOM     11  C   LIG    1       -1.413  -2.059   0.130  0.00  0.00    -0.040 C 
ATOM     12  C   LIG    1       -0.824  -2.459   1.484  0.00  0.00    +0.020 C 
ATOM     13  C   LIG    1       -0.555  -2.646  -0.992  0.00  0.00    +0.010 C 
ENDBRANCH  10  11
BRANCH  10  15
ATOM     14  C   LIG    1       -0.019   1.526   0.010  0.00  0.00    +0.010 C 
ATOM     15  C   LIG    1        0.002  -0.004   0.002  0.00  0.00    +0.020 C 
ENDBRANCH  10  15
ENDBRANCH   1  10
TORSDOF 4
ENDMDL
MODEL      678
REMARK  Name = ZINC000049952241
REMARK                            x       y       z     vdW  Elec       q    Type
REMARK                         _______ _______ _______ _____ _____    ______ ____
ROOT
ATOM      1  C   LIG    1        3.626  -0.886  -0.119  0.00  0.00    +0.010 C 
ATOM      2  C   LIG    1        3.762  -2.409  -0.054  0.00  0.00    +0.030 C 
ATOM      3  C   LIG    1        4.059  -1.560   1.184  0.00  0.00    +0.020 C 
ENDROOT
BRANCH   1   7
ATOM      4  C   LIG    1       -0.322   0.736  -0.284  0.00  0.00    +0.000 A 
ATOM      5  C   LIG    1        0.744   1.546   0.059  0.00  0.00    +0.000 A 
ATOM      6  C   LIG    1        2.022   1.021   0.112  0.00  0.00    +0.010 A 
ATOM      7  C   LIG    1        2.233  -0.314  -0.177  0.00  0.00    -0.050 A 
ATOM      8  C   LIG    1        1.166  -1.124  -0.519  0.00  0.00    +0.000 A 
ATOM      9  C   LIG    1       -0.111  -0.599  -0.574  0.00  0.00    +0.000 A 
ENDBRANCH   1   7
BRANCH   3  10
ATOM     10  C   LIG    1        3.061  -1.602   2.312  0.00  0.00    -0.050 A 
ATOM     11  C   LIG    1        1.817  -2.170   2.114  0.00  0.00    +0.010 A 
ATOM     12  C   LIG    1        0.900  -2.208   3.148  0.00  0.00    +0.000 A 
ATOM     13  C   LIG    1        1.229  -1.678   4.382  0.00  0.00    +0.000 A 
ATOM     14  C   LIG    1        2.474  -1.110   4.581  0.00  0.00    +0.000 A 
ATOM     15  C   LIG    1        3.391  -1.076   3.547  0.00  0.00    +0.010 A 
ENDBRANCH   3  10
TORSDOF 2
ENDMDL
MODEL      679
REMARK  Name = ZINC000071773014
REMARK                            x       y       z     vdW  Elec       q    Type
REMARK                         _______ _______ _______ _____ _____    ______ ____
ROOT
ATOM      1  C   LIG    1        2.252  -4.577   3.685  0.00  0.00    -0.090 A 
ATOM      2  C   LIG    1        3.599  -4.881   3.609  0.00  0.00    +0.030 A 
ATOM      3  C   LIG    1        4.269  -5.338   4.727  0.00  0.00    -0.020 A 
ATOM      4  C   LIG    1        3.591  -5.492   5.927  0.00  0.00    +0.100 A 
ATOM      5  C   LIG    1        2.239  -5.186   6.001  0.00  0.00    -0.010 A 
ATOM      6  C   LIG    1        1.575  -4.724   4.881  0.00  0.00    -0.070 A 
ATOM      7  C   LIG    1        0.107  -4.391   4.961  0.00  0.00    +0.090 C 
ENDROOT
BRANCH   4   8
ATOM      8  O   LIG    1        4.248  -5.941   7.028  0.00  0.00    -0.500 OA
ATOM      9  H   LIG    1        4.639  -5.240   7.566  0.00  0.00    +0.390 HD
ENDBRANCH   4   8
BRANCH   1  10
ATOM     10  C   LIG    1        1.524  -4.077   2.464  0.00  0.00    +0.070 C 
BRANCH  10  11
ATOM     11  C   LIG    1        1.503  -2.548   2.473  0.00  0.00    +0.010 C 
BRANCH  11  12
ATOM     12  C   LIG    1        0.763  -2.041   1.233  0.00  0.00    +0.000 C 
BRANCH  12  13
ATOM     13  C   LIG    1        0.742  -0.511   1.242  0.00  0.00    +0.000 C 
BRANCH  13  15
ATOM     14  C   LIG    1       -0.019   1.526   0.010  0.00  0.00    +0.000 C 
ATOM     15  C   LIG    1        0.002  -0.004   0.002  0.00  0.00    -0.010 C 
ENDBRANCH  13  15
ENDBRANCH  12  13
ENDBRANCH  11  12
ENDBRANCH  10  11
ENDBRANCH   1  10
TORSDOF 6
ENDMDL
MODEL      680
REMARK  Name = ZINC000071785758
REMARK                            x       y       z     vdW  Elec       q    Type
REMARK                         _______ _______ _______ _____ _____    ______ ____
ROOT
ATOM      1  C   LIG    1       -0.015   1.495  -0.024  0.00  0.00    +0.120 C 
ATOM      2  C   LIG    1        0.004  -0.012  -0.018  0.00  0.00    -0.160 C 
ATOM      3  C   LIG    1        0.013  -0.945  -0.939  0.00  0.00    -0.140 C 
ATOM      4  C   LIG    1        0.025  -2.153  -0.038  0.00  0.00    +0.030 C 
ATOM      5  C   LIG    1        1.324  -2.958  -0.119  0.00  0.00    +0.080 C 
ATOM      6  C   LIG    1        1.716  -3.390   1.275  0.00  0.00    -0.140 C 
ATOM      7  C   LIG    1        1.717  -2.482   2.228  0.00  0.00    -0.130 C 
ATOM      8  C   LIG    1        1.335  -1.066   1.873  0.00  0.00    +0.070 C 
ATOM      9  C   LIG    1        2.092  -2.849   3.641  0.00  0.00    +0.070 C 
ATOM     10  C   LIG    1        2.095  -4.819   1.565  0.00  0.00    +0.080 C 
ATOM     11  C   LIG    1        0.011  -0.841  -2.442  0.00  0.00    +0.090 C 
ATOM     12  C   LIG    1        0.028  -1.078   1.050  0.00  0.00    +0.020 C 
ENDROOT
TORSDOF 0
ENDMDL
MODEL      681
REMARK  Name = ZINC000071785750
REMARK                            x       y       z     vdW  Elec       q    Type
REMARK                         _______ _______ _______ _____ _____    ______ ____
ROOT
ATOM      1  C   LIG    1       -0.018   1.503   0.010  0.00  0.00    +0.080 C 
ATOM      2  C   LIG    1        0.002  -0.004   0.002  0.00  0.00    -0.130 C 
ATOM      3  C   LIG    1        0.006  -0.674  -1.132  0.00  0.00    -0.050 C 
ATOM      4  C   LIG    1        0.032  -2.183  -1.058  0.00  0.00    +0.070 C 
ATOM      5  C   LIG    1        1.144  -2.606  -0.089  0.00  0.00    -0.030 C 
ATOM      6  C   LIG    1        2.447  -1.865  -0.379  0.00  0.00    -0.040 C 
ATOM      7  C   LIG    1        2.447  -1.224   0.777  0.00  0.00    -0.040 C 
ATOM      8  C   LIG    1        1.369  -4.108  -0.082  0.00  0.00    +0.030 C 
ATOM      9  C   LIG    1        1.035  -4.732   1.268  0.00  0.00    +0.000 C 
ATOM     10  C   LIG    1        1.858  -3.995   2.335  0.00  0.00    +0.000 C 
ATOM     11  C   LIG    1        1.237  -2.616   2.525  0.00  0.00    +0.030 C 
ATOM     12  C   LIG    1        1.136  -1.845   1.224  0.00  0.00    -0.030 C 
ATOM     13  C   LIG    1        0.025  -0.786   1.293  0.00  0.00    +0.080 C 
ENDROOT
TORSDOF 0
ENDMDL
MODEL      682
REMARK  Name = ZINC000071785761
REMARK                            x       y       z     vdW  Elec       q    Type
REMARK                         _______ _______ _______ _____ _____    ______ ____
ROOT
ATOM      1  C   LIG    1       -0.018   1.503   0.010  0.00  0.00    +0.080 C 
ATOM      2  C   LIG    1        0.002  -0.004   0.002  0.00  0.00    -0.100 C 
ATOM      3  C   LIG    1       -1.153  -0.652   0.004  0.00  0.00    -0.010 C 
ATOM      4  C   LIG    1       -1.156  -2.167  -0.004  0.00  0.00    +0.000 C 
ATOM      5  C   LIG    1       -1.284  -2.674  -1.438  0.00  0.00    -0.030 C 
ATOM      6  C   LIG    1       -0.129  -3.316  -1.414  0.00  0.00    -0.030 C 
ATOM      7  C   LIG    1       -2.289  -2.724   0.827  0.00  0.00    +0.030 C 
ATOM      8  C   LIG    1       -1.806  -3.602   1.975  0.00  0.00    +0.010 C 
ATOM      9  C   LIG    1       -0.921  -4.700   1.368  0.00  0.00    +0.020 C 
ATOM     10  C   LIG    1        0.387  -4.045   0.943  0.00  0.00    +0.030 C 
ATOM     11  C   LIG    1        0.188  -2.881   0.003  0.00  0.00    +0.000 C 
ATOM     12  C   LIG    1        1.430  -2.000  -0.008  0.00  0.00    -0.010 C 
ATOM     13  C   LIG    1        1.296  -0.684  -0.014  0.00  0.00    -0.010 C 
ENDROOT
TORSDOF 0
ENDMDL
MODEL      683
REMARK  Name = ZINC000071785762
REMARK                            x       y       z     vdW  Elec       q    Type
REMARK                         _______ _______ _______ _____ _____    ______ ____
ROOT
ATOM      1  C   LIG    1       -0.018   1.503   0.010  0.00  0.00    +0.080 C 
ATOM      2  C   LIG    1        0.002  -0.004   0.002  0.00  0.00    -0.090 C 
ATOM      3  C   LIG    1       -1.154  -0.645   0.004  0.00  0.00    -0.010 C 
ATOM      4  C   LIG    1       -1.169  -2.168  -0.005  0.00  0.00    +0.010 C 
ATOM      5  C   LIG    1       -1.344  -2.674   1.413  0.00  0.00    -0.030 C 
ATOM      6  C   LIG    1       -0.157  -3.256   1.437  0.00  0.00    -0.030 C 
ATOM      7  C   LIG    1       -2.238  -2.671  -0.943  0.00  0.00    +0.030 C 
ATOM      8  C   LIG    1       -2.030  -4.120  -1.367  0.00  0.00    +0.020 C 
ATOM      9  C   LIG    1       -0.622  -4.220  -1.974  0.00  0.00    +0.010 C 
ATOM     10  C   LIG    1        0.374  -4.114  -0.827  0.00  0.00    +0.030 C 
ATOM     11  C   LIG    1        0.185  -2.863   0.003  0.00  0.00    +0.000 C 
ATOM     12  C   LIG    1        1.427  -1.996  -0.009  0.00  0.00    +0.010 C 
ATOM     13  C   LIG    1        1.299  -0.678  -0.014  0.00  0.00    -0.010 C 
ENDROOT
TORSDOF 0
ENDMDL
MODEL      684
REMARK  Name = ZINC000071785764
REMARK                            x       y       z     vdW  Elec       q    Type
REMARK                         _______ _______ _______ _____ _____    ______ ____
ROOT
ATOM      1  C   LIG    1       -0.018   1.503   0.010  0.00  0.00    +0.100 C 
ATOM      2  C   LIG    1        0.002  -0.004   0.002  0.00  0.00    -0.090 C 
ATOM      3  C   LIG    1        0.006  -0.663  -1.144  0.00  0.00    -0.030 C 
ATOM      4  C   LIG    1        0.025  -2.122  -1.237  0.00  0.00    -0.010 C 
ATOM      5  C   LIG    1        0.033  -2.913  -0.174  0.00  0.00    -0.010 C 
ATOM      6  C   LIG    1        0.021  -2.296   1.210  0.00  0.00    +0.000 C 
ATOM      7  C   LIG    1       -1.412  -2.216   1.726  0.00  0.00    -0.030 C 
ATOM      8  C   LIG    1       -1.396  -0.898   1.841  0.00  0.00    -0.030 C 
ATOM      9  C   LIG    1        0.859  -3.099   2.181  0.00  0.00    +0.030 C 
ATOM     10  C   LIG    1        2.005  -2.293   2.787  0.00  0.00    +0.010 C 
ATOM     11  C   LIG    1        1.391  -1.040   3.428  0.00  0.00    +0.020 C 
ATOM     12  C   LIG    1        0.960  -0.116   2.295  0.00  0.00    +0.030 C 
ATOM     13  C   LIG    1        0.025  -0.778   1.314  0.00  0.00    +0.010 C 
ENDROOT
TORSDOF 0
ENDMDL
MODEL      685
REMARK  Name = ZINC000071782938
REMARK                            x       y       z     vdW  Elec       q    Type
REMARK                         _______ _______ _______ _____ _____    ______ ____
ROOT
ATOM      1  C   LIG    1       -0.027   1.503   0.011  0.00  0.00    +0.080 C 
ATOM      2  C   LIG    1       -0.002  -0.004   0.002  0.00  0.00    -0.130 C 
ATOM      3  C   LIG    1       -0.094  -0.631  -1.133  0.00  0.00    -0.130 C 
ATOM      4  C   LIG    1       -0.075  -2.125  -1.214  0.00  0.00    +0.120 C 
ATOM      5  C   LIG    1       -0.534  -2.758   0.076  0.00  0.00    -0.120 C 
ATOM      6  C   LIG    1       -0.443  -2.131   1.213  0.00  0.00    -0.120 C 
ATOM      7  C   LIG    1       -0.902  -2.765   2.503  0.00  0.00    +0.110 C 
ATOM      8  C   LIG    1       -1.937  -3.818   2.262  0.00  0.00    -0.050 C 
ATOM      9  C   LIG    1       -2.027  -4.445   1.127  0.00  0.00    -0.050 C 
ATOM     10  C   LIG    1       -1.103  -4.153  -0.012  0.00  0.00    +0.110 C 
ATOM     11  C   LIG    1       -0.223   0.171  -2.403  0.00  0.00    +0.070 C 
ATOM     12  C   LIG    1        0.134  -0.736   1.300  0.00  0.00    +0.120 C 
ENDROOT
TORSDOF 0
ENDMDL
MODEL      686
REMARK  Name = ZINC000071785751
REMARK                            x       y       z     vdW  Elec       q    Type
REMARK                         _______ _______ _______ _____ _____    ______ ____
ROOT
ATOM      1  C   LIG    1       -0.018   1.503   0.010  0.00  0.00    +0.080 C 
ATOM      2  C   LIG    1        0.002  -0.004   0.002  0.00  0.00    -0.130 C 
ATOM      3  C   LIG    1        0.006  -0.679  -1.129  0.00  0.00    -0.050 C 
ATOM      4  C   LIG    1        0.033  -2.186  -1.061  0.00  0.00    +0.070 C 
ATOM      5  C   LIG    1       -1.056  -2.664  -0.080  0.00  0.00    -0.030 C 
ATOM      6  C   LIG    1       -2.390  -2.010  -0.389  0.00  0.00    -0.040 C 
ATOM      7  C   LIG    1       -2.392  -1.303   0.727  0.00  0.00    -0.040 C 
ATOM      8  C   LIG    1       -1.114  -4.178  -0.025  0.00  0.00    +0.030 C 
ATOM      9  C   LIG    1       -1.702  -4.687   1.286  0.00  0.00    +0.000 C 
ATOM     10  C   LIG    1       -0.876  -4.082   2.431  0.00  0.00    +0.000 C 
ATOM     11  C   LIG    1       -1.247  -2.607   2.535  0.00  0.00    +0.030 C 
ATOM     12  C   LIG    1       -1.064  -1.876   1.218  0.00  0.00    -0.030 C 
ATOM     13  C   LIG    1        0.025  -0.792   1.292  0.00  0.00    +0.080 C 
ENDROOT
TORSDOF 0
ENDMDL
MODEL      687
REMARK  Name = ZINC000071785585
REMARK                            x       y       z     vdW  Elec       q    Type
REMARK                         _______ _______ _______ _____ _____    ______ ____
ROOT
ATOM      1  C   LIG    1       -0.019   1.526   0.010  0.00  0.00    +0.010 C 
ATOM      2  C   LIG    1        0.002  -0.004   0.002  0.00  0.00    -0.040 C 
ATOM      3  C   LIG    1        0.555  -0.464  -1.366  0.00  0.00    +0.010 C 
ATOM      4  C   LIG    1        2.035   0.067  -1.410  0.00  0.00    +0.010 C 
ATOM      5  C   LIG    1        2.887  -1.148  -1.841  0.00  0.00    -0.030 C 
ATOM      6  C   LIG    1        2.820  -2.412  -0.954  0.00  0.00    +0.010 C 
ATOM      7  C   LIG    1        3.274  -1.935   0.474  0.00  0.00    +0.010 C 
ATOM      8  C   LIG    1        2.199  -2.480   1.442  0.00  0.00    -0.020 C 
ATOM      9  C   LIG    1        0.737  -2.046   1.195  0.00  0.00    +0.010 C 
ATOM     10  C   LIG    1        0.756  -0.475   1.266  0.00  0.00    +0.010 C 
ENDROOT
TORSDOF 0
ENDMDL
MODEL      688
REMARK  Name = ZINC000071785760
REMARK                            x       y       z     vdW  Elec       q    Type
REMARK                         _______ _______ _______ _____ _____    ______ ____
ROOT
ATOM      1  C   LIG    1       -0.019   1.526   0.010  0.00  0.00    +0.020 C 
ATOM      2  C   LIG    1        0.002  -0.004   0.002  0.00  0.00    -0.050 C 
ATOM      3  C   LIG    1        0.726  -0.495  -1.249  0.00  0.00    +0.060 C 
ATOM      4  C   LIG    1        1.014  -1.964  -1.148  0.00  0.00    -0.060 C 
ATOM      5  C   LIG    1        0.974  -2.632  -0.041  0.00  0.00    -0.050 C 
ATOM      6  C   LIG    1        0.623  -2.039   1.290  0.00  0.00    +0.060 C 
ATOM      7  C   LIG    1       -1.432  -0.532   0.027  0.00  0.00    +0.020 C 
ATOM      8  C   LIG    1       -2.141   0.009   1.275  0.00  0.00    +0.000 C 
ATOM      9  C   LIG    1       -1.394  -0.444   2.530  0.00  0.00    +0.010 C 
ATOM     10  C   LIG    1        0.049   0.066   2.487  0.00  0.00    +0.020 C 
ATOM     11  C   LIG    1        0.745  -0.511   1.246  0.00  0.00    -0.050 C 
ATOM     12  C   LIG    1        2.216  -0.093   1.200  0.00  0.00    +0.030 C 
ENDROOT
TORSDOF 0
ENDMDL
MODEL      689
REMARK  Name = ZINC000071786477
REMARK                            x       y       z     vdW  Elec       q    Type
REMARK                         _______ _______ _______ _____ _____    ______ ____
ROOT
ATOM      1  C   LIG    1        0.021   1.526  -0.018  0.00  0.00    +0.020 C 
ATOM      2  C   LIG    1        0.025  -0.004  -0.015  0.00  0.00    -0.010 C 
ATOM      3  C   LIG    1        0.695  -0.533  -1.300  0.00  0.00    +0.010 C 
ATOM      4  C   LIG    1        1.478  -1.785  -0.833  0.00  0.00    +0.010 C 
ATOM      5  C   LIG    1        2.015  -1.354   0.555  0.00  0.00    +0.020 C 
ATOM      6  C   LIG    1        0.864  -0.526   1.165  0.00  0.00    -0.020 C 
ATOM      7  C   LIG    1        0.004  -1.411   2.070  0.00  0.00    +0.040 C 
ENDROOT
BRANCH   6   8
ATOM      8  C   LIG    1        1.422   0.631   1.954  0.00  0.00    -0.060 A 
ATOM      9  C   LIG    1        0.576   1.431   2.699  0.00  0.00    +0.010 A 
ATOM     10  C   LIG    1        1.088   2.492   3.422  0.00  0.00    +0.000 A 
ATOM     11  C   LIG    1        2.446   2.753   3.400  0.00  0.00    -0.010 A 
ATOM     12  C   LIG    1        3.291   1.952   2.656  0.00  0.00    +0.000 A 
ATOM     13  C   LIG    1        2.780   0.888   1.936  0.00  0.00    +0.000 A 
ENDBRANCH   6   8
TORSDOF 1
ENDMDL
MODEL      690
REMARK  Name = ZINC000071787091
REMARK                            x       y       z     vdW  Elec       q    Type
REMARK                         _______ _______ _______ _____ _____    ______ ____
ROOT
ATOM      1  C   LIG    1        0.060  -4.275  -0.021  0.00  0.00    +0.120 C 
ENDROOT
BRANCH   1   6
ATOM      2  C   LIG    1       -0.018   1.503   0.010  0.00  0.00    +0.090 C 
ATOM      3  C   LIG    1        0.002  -0.004   0.002  0.00  0.00    -0.090 A 
ATOM      4  C   LIG    1        0.006  -0.689  -1.199  0.00  0.00    +0.000 A 
ATOM      5  C   LIG    1        0.025  -2.071  -1.206  0.00  0.00    +0.010 A 
ATOM      6  C   LIG    1        0.040  -2.768  -0.013  0.00  0.00    -0.080 A 
ATOM      7  C   LIG    1        0.038  -2.084   1.188  0.00  0.00    +0.000 A 
ATOM      8  C   LIG    1        0.023  -0.702   1.195  0.00  0.00    +0.000 A 
ENDBRANCH   1   6
BRANCH   1   9
ATOM      9  C   LIG    1        1.487  -4.759  -0.032  0.00  0.00    -0.080 A 
ATOM     10  C   LIG    1        2.104  -5.067  -1.230  0.00  0.00    +0.010 A 
ATOM     11  C   LIG    1        3.413  -5.511  -1.239  0.00  0.00    +0.000 A 
ATOM     12  C   LIG    1        4.106  -5.645  -0.051  0.00  0.00    +0.000 A 
ATOM     13  C   LIG    1        3.490  -5.336   1.148  0.00  0.00    +0.000 A 
ATOM     14  C   LIG    1        2.182  -4.888   1.157  0.00  0.00    -0.080 A 
ATOM     15  C   LIG    1        1.510  -4.551   2.463  0.00  0.00    +0.090 C 
ENDBRANCH   1   9
TORSDOF 2
ENDMDL
MODEL      691
REMARK  Name = ZINC000071791913
REMARK                            x       y       z     vdW  Elec       q    Type
REMARK                         _______ _______ _______ _____ _____    ______ ____
ROOT
ATOM      1  C   LIG    1        0.731  -0.503   1.223  0.00  0.00    -0.040 A 
ATOM      2  C   LIG    1        2.050  -0.148   1.434  0.00  0.00    +0.010 A 
ATOM      3  C   LIG    1        2.719  -0.606   2.554  0.00  0.00    +0.070 A 
ATOM      4  C   LIG    1        2.068  -1.419   3.463  0.00  0.00    -0.190 A 
ATOM      5  C   LIG    1        0.748  -1.773   3.253  0.00  0.00    +0.070 A 
ATOM      6  C   LIG    1        0.079  -1.312   2.135  0.00  0.00    +0.010 A 
ENDROOT
BRANCH   4   7
ATOM      7  C   LIG    1        2.797  -1.918   4.684  0.00  0.00    +0.510 C 
ATOM      8  F   LIG    1        4.159  -2.049   4.393  0.00  0.00    -0.180 F 
ATOM      9  F   LIG    1        2.279  -3.163   5.059  0.00  0.00    -0.180 F 
ATOM     10  F   LIG    1        2.629  -1.008   5.732  0.00  0.00    -0.180 F 
ENDBRANCH   4   7
BRANCH   1  12
ATOM     11  C   LIG    1       -0.019   1.526   0.010  0.00  0.00    +0.030 C 
ATOM     12  C   LIG    1        0.002  -0.004   0.002  0.00  0.00    +0.020 C 
ATOM     13  C   LIG    1        0.718  -0.497  -1.257  0.00  0.00    +0.030 C 
ENDBRANCH   1  12
TORSDOF 2
ENDMDL
MODEL      692
REMARK  Name = ZINC000072099247
REMARK                            x       y       z     vdW  Elec       q    Type
REMARK                         _______ _______ _______ _____ _____    ______ ____
ROOT
ATOM      1  C   LIG    1       -2.812  -2.646   0.052  0.00  0.00    -0.050 C 
ATOM      2  C   LIG    1       -3.254  -3.339  -0.967  0.00  0.00    -0.050 C 
ENDROOT
BRANCH   1   3
ATOM      3  C   LIG    1       -1.392  -2.141   0.062  0.00  0.00    +0.050 C 
BRANCH   3   4
ATOM      4  C   LIG    1       -1.387  -0.637   0.345  0.00  0.00    +0.010 C 
BRANCH   4   6
ATOM      5  C   LIG    1        0.060   1.378   0.637  0.00  0.00    +0.000 C 
ATOM      6  C   LIG    1        0.055  -0.125   0.354  0.00  0.00    -0.010 C 
ENDBRANCH   4   6
ENDBRANCH   3   4
ENDBRANCH   1   3
BRANCH   2   7
ATOM      7  C   LIG    1       -2.302  -3.777  -2.050  0.00  0.00    +0.050 C 
BRANCH   7   8
ATOM      8  C   LIG    1       -2.418  -5.290  -2.250  0.00  0.00    +0.010 C 
BRANCH   8   9
ATOM      9  C   LIG    1       -1.452  -5.735  -3.349  0.00  0.00    -0.010 C 
ATOM     10  C   LIG    1       -1.568  -7.247  -3.549  0.00  0.00    +0.000 C 
ENDBRANCH   8   9
ENDBRANCH   7   8
ENDBRANCH   2   7
TORSDOF 6
ENDMDL
MODEL      693
REMARK  Name = ZINC000075838897
REMARK                            x       y       z     vdW  Elec       q    Type
REMARK                         _______ _______ _______ _____ _____    ______ ____
ROOT
ATOM      1  C   LIG    1       -1.412  -0.526   0.013  0.00  0.00    -0.070 A 
ATOM      2  C   LIG    1       -2.259  -0.204   1.057  0.00  0.00    +0.060 A 
ATOM      3  C   LIG    1       -3.556  -0.681   1.068  0.00  0.00    +0.010 A 
ATOM      4  C   LIG    1       -4.007  -1.482   0.034  0.00  0.00    +0.100 A 
ATOM      5  C   LIG    1       -3.158  -1.804  -1.013  0.00  0.00    -0.070 A 
ATOM      6 CL   LIG    1       -3.722  -2.808  -2.312  0.00  0.00    -0.050 Cl
ATOM      7  F   LIG    1       -5.275  -1.949   0.044  0.00  0.00    -0.130 F 
ATOM      8  C   LIG    1       -1.862  -1.321  -1.025  0.00  0.00    +0.060 A 
ENDROOT
BRANCH   1  10
ATOM      9  C   LIG    1       -0.019   1.526   0.010  0.00  0.00    +0.030 C 
ATOM     10  C   LIG    1        0.002  -0.004   0.002  0.00  0.00    +0.020 C 
ATOM     11  C   LIG    1        0.742  -0.511   1.242  0.00  0.00    +0.030 C 
ENDBRANCH   1  10
TORSDOF 1
ENDMDL
MODEL      694
REMARK  Name = ZINC000077011864
REMARK                            x       y       z     vdW  Elec       q    Type
REMARK                         _______ _______ _______ _____ _____    ______ ____
ROOT
ATOM      1  C   LIG    1        0.739  -2.004  -1.265  0.00  0.00    -0.140 A 
ATOM      2  C   LIG    1        1.788  -2.684  -0.675  0.00  0.00    +0.060 A 
ATOM      3  C   LIG    1        1.807  -4.067  -0.682  0.00  0.00    +0.030 A 
ATOM      4  C   LIG    1        0.777  -4.769  -1.279  0.00  0.00    +0.050 A 
ATOM      5  C   LIG    1       -0.273  -4.089  -1.870  0.00  0.00    -0.040 A 
ATOM      6 CL   LIG    1       -1.567  -4.971  -2.619  0.00  0.00    -0.060 Cl
ATOM      7  C   LIG    1       -0.294  -2.706  -1.858  0.00  0.00    +0.060 A 
ENDROOT
BRANCH   1   8
ATOM      8  C   LIG    1        0.718  -0.497  -1.257  0.00  0.00    +0.340 C 
ATOM      9  F   LIG    1        2.031  -0.013  -1.267  0.00  0.00    -0.190 F 
ATOM     10  F   LIG    1        0.042  -0.034  -2.390  0.00  0.00    -0.190 F 
BRANCH   8  12
ATOM     11  C   LIG    1       -0.019   1.526   0.010  0.00  0.00    +0.050 C 
ATOM     12  C   LIG    1        0.002  -0.004   0.002  0.00  0.00    +0.040 C 
ENDBRANCH   8  12
ENDBRANCH   1   8
TORSDOF 2
ENDMDL
MODEL      695
REMARK  Name = ZINC000077011889
REMARK                            x       y       z     vdW  Elec       q    Type
REMARK                         _______ _______ _______ _____ _____    ______ ____
ROOT
ATOM      1  C   LIG    1        0.707  -0.490  -1.238  0.00  0.00    -0.150 A 
ATOM      2  C   LIG    1        0.849  -1.868  -1.476  0.00  0.00    -0.030 A 
ATOM      3  C   LIG    1        0.343  -2.820  -0.574  0.00  0.00    +0.020 A 
ATOM      4  C   LIG    1        0.499  -4.146  -0.838  0.00  0.00    +0.020 A 
ATOM      5  C   LIG    1        1.155  -4.576  -1.990  0.00  0.00    +0.020 A 
ATOM      6  C   LIG    1        1.659  -3.683  -2.885  0.00  0.00    +0.030 A 
ATOM      7  C   LIG    1        1.516  -2.306  -2.647  0.00  0.00    -0.060 A 
ATOM      8  C   LIG    1        2.022  -1.354  -3.548  0.00  0.00    +0.050 A 
ATOM      9  C   LIG    1        1.865  -0.027  -3.285  0.00  0.00    +0.000 A 
ATOM     10  C   LIG    1        1.206   0.403  -2.136  0.00  0.00    +0.060 A 
ENDROOT
BRANCH   1  12
ATOM     11  C   LIG    1       -0.019   1.526   0.010  0.00  0.00    +0.070 C 
ATOM     12  C   LIG    1        0.002  -0.004   0.002  0.00  0.00    +0.340 C 
ATOM     13  F   LIG    1       -1.310  -0.488   0.012  0.00  0.00    -0.190 F 
ATOM     14  F   LIG    1        0.679  -0.468   1.135  0.00  0.00    -0.190 F 
ENDBRANCH   1  12
TORSDOF 1
ENDMDL
MODEL      696
REMARK  Name = ZINC000077011849
REMARK                            x       y       z     vdW  Elec       q    Type
REMARK                         _______ _______ _______ _____ _____    ______ ____
ROOT
ATOM      1  C   LIG    1        0.739  -2.027  -1.265  0.00  0.00    -0.010 C 
ATOM      2  C   LIG    1       -0.692  -2.556  -1.380  0.00  0.00    +0.030 C 
ATOM      3  C   LIG    1       -0.671  -4.086  -1.389  0.00  0.00    +0.020 C 
ATOM      4  C   LIG    1        0.151  -4.578  -2.581  0.00  0.00    +0.290 C 
ATOM      5  C   LIG    1        1.583  -4.050  -2.466  0.00  0.00    +0.020 C 
ATOM      6  F   LIG    1       -0.424  -4.113  -3.768  0.00  0.00    -0.200 F 
ATOM      7  F   LIG    1        0.171  -5.977  -2.588  0.00  0.00    -0.200 F 
ATOM      8  C   LIG    1        1.562  -2.520  -2.457  0.00  0.00    +0.030 C 
ENDROOT
BRANCH   1   9
ATOM      9  C   LIG    1        0.718  -0.497  -1.257  0.00  0.00    +0.000 C 
BRANCH   9  11
ATOM     10  C   LIG    1       -0.019   1.526   0.010  0.00  0.00    +0.000 C 
ATOM     11  C   LIG    1        0.002  -0.004   0.002  0.00  0.00    -0.010 C 
ENDBRANCH   9  11
ENDBRANCH   1   9
TORSDOF 2
ENDMDL
MODEL      697
REMARK  Name = ZINC000078102492
REMARK                            x       y       z     vdW  Elec       q    Type
REMARK                         _______ _______ _______ _____ _____    ______ ____
ROOT
ATOM      1  C   LIG    1        1.465  -2.481   2.490  0.00  0.00    -0.020 C 
ATOM      2  C   LIG    1        0.866  -3.316   3.329  0.00  0.00    -0.010 C 
ENDROOT
BRANCH   2   3
ATOM      3  C   LIG    1       -0.509  -3.781   3.052  0.00  0.00    -0.060 A 
ATOM      4  C   LIG    1       -0.898  -4.080   1.746  0.00  0.00    +0.020 A 
ATOM      5  C   LIG    1       -2.184  -4.514   1.495  0.00  0.00    +0.000 A 
ATOM      6  C   LIG    1       -3.086  -4.653   2.534  0.00  0.00    +0.000 A 
ATOM      7  C   LIG    1       -2.707  -4.357   3.832  0.00  0.00    +0.000 A 
ATOM      8  C   LIG    1       -1.422  -3.929   4.097  0.00  0.00    +0.010 A 
ENDBRANCH   2   3
BRANCH   1   9
ATOM      9  C   LIG    1        0.689  -1.874   1.350  0.00  0.00    +0.040 C 
BRANCH   9  10
ATOM     10  C   LIG    1        0.853  -0.353   1.375  0.00  0.00    +0.000 C 
BRANCH  10  12
ATOM     11  C   LIG    1        0.229   1.785   0.242  0.00  0.00    +0.000 C 
ATOM     12  C   LIG    1        0.065   0.264   0.217  0.00  0.00    -0.010 C 
ENDBRANCH  10  12
ENDBRANCH   9  10
ENDBRANCH   1   9
TORSDOF 4
ENDMDL
MODEL      698
REMARK  Name = ZINC000078206535
REMARK                            x       y       z     vdW  Elec       q    Type
REMARK                         _______ _______ _______ _____ _____    ______ ____
ROOT
ATOM      1  C   LIG    1       -0.018   1.503   0.010  0.00  0.00    +0.100 C 
ATOM      2  C   LIG    1        0.002  -0.004   0.002  0.00  0.00    -0.060 A 
ATOM      3  C   LIG    1        0.006  -0.689  -1.199  0.00  0.00    +0.010 A 
ATOM      4  C   LIG    1        0.025  -2.071  -1.206  0.00  0.00    +0.050 A 
ATOM      5  C   LIG    1        0.040  -2.768  -0.013  0.00  0.00    -0.160 A 
ATOM      6  C   LIG    1        0.038  -2.084   1.188  0.00  0.00    +0.050 A 
ATOM      7  C   LIG    1        0.023  -0.702   1.195  0.00  0.00    +0.010 A 
ENDROOT
BRANCH   5   8
ATOM      8  C   LIG    1        0.060  -4.275  -0.021  0.00  0.00    +0.250 C 
ATOM      9  F   LIG    1       -1.010  -4.760   0.738  0.00  0.00    -0.170 F 
BRANCH   8  10
ATOM     10  C   LIG    1        1.377  -4.771   0.578  0.00  0.00    +0.430 C 
ATOM     11  F   LIG    1        2.447  -4.287  -0.181  0.00  0.00    -0.170 F 
ATOM     12  F   LIG    1        1.396  -6.170   0.571  0.00  0.00    -0.170 F 
ATOM     13  F   LIG    1        1.493  -4.311   1.894  0.00  0.00    -0.170 F 
ENDBRANCH   8  10
ENDBRANCH   5   8
TORSDOF 2
ENDMDL
MODEL      699
REMARK  Name = ZINC000078206536
REMARK                            x       y       z     vdW  Elec       q    Type
REMARK                         _______ _______ _______ _____ _____    ______ ____
ROOT
ATOM      1  C   LIG    1       -0.018   1.503   0.010  0.00  0.00    +0.100 C 
ATOM      2  C   LIG    1        0.002  -0.004   0.002  0.00  0.00    -0.060 A 
ATOM      3  C   LIG    1        0.006  -0.689  -1.199  0.00  0.00    +0.010 A 
ATOM      4  C   LIG    1        0.025  -2.071  -1.206  0.00  0.00    +0.050 A 
ATOM      5  C   LIG    1        0.040  -2.768  -0.013  0.00  0.00    -0.160 A 
ATOM      6  C   LIG    1        0.038  -2.084   1.188  0.00  0.00    +0.050 A 
ATOM      7  C   LIG    1        0.023  -0.702   1.195  0.00  0.00    +0.010 A 
ENDROOT
BRANCH   5   8
ATOM      8  C   LIG    1        0.060  -4.275  -0.021  0.00  0.00    +0.250 C 
ATOM      9  F   LIG    1        1.151  -4.731   0.727  0.00  0.00    -0.170 F 
BRANCH   8  10
ATOM     10  C   LIG    1       -1.237  -4.806   0.592  0.00  0.00    +0.430 C 
ATOM     11  F   LIG    1       -1.351  -4.348   1.909  0.00  0.00    -0.170 F 
ATOM     12  F   LIG    1       -1.219  -6.205   0.585  0.00  0.00    -0.170 F 
ATOM     13  F   LIG    1       -2.328  -4.350  -0.156  0.00  0.00    -0.170 F 
ENDBRANCH   8  10
ENDBRANCH   5   8
TORSDOF 2
ENDMDL
MODEL      700
REMARK  Name = ZINC000078637493
REMARK                            x       y       z     vdW  Elec       q    Type
REMARK                         _______ _______ _______ _____ _____    ______ ____
ROOT
ATOM      1  C   LIG    1        0.002   1.503  -0.022  0.00  0.00    +0.090 C 
ATOM      2  C   LIG    1        0.018  -0.004  -0.024  0.00  0.00    -0.080 A 
ATOM      3  C   LIG    1       -1.095  -0.705   0.403  0.00  0.00    +0.000 A 
ATOM      4  C   LIG    1       -1.085  -2.086   0.404  0.00  0.00    +0.020 A 
ATOM      5  C   LIG    1        0.049  -2.772  -0.026  0.00  0.00    -0.050 A 
ATOM      6  C   LIG    1        1.167  -2.060  -0.455  0.00  0.00    +0.020 A 
ATOM      7  C   LIG    1        1.144  -0.680  -0.457  0.00  0.00    +0.000 A 
ENDROOT
BRANCH   5   8
ATOM      8  C   LIG    1        0.065  -4.256  -0.028  0.00  0.00    -0.050 A 
ATOM      9  C   LIG    1       -0.913  -4.965  -0.723  0.00  0.00    +0.020 A 
ATOM     10  C   LIG    1       -0.893  -6.345  -0.721  0.00  0.00    +0.000 A 
ATOM     11  C   LIG    1        0.094  -7.024  -0.030  0.00  0.00    +0.010 A 
ATOM     12  C   LIG    1        1.067  -6.325   0.661  0.00  0.00    +0.000 A 
ATOM     13  C   LIG    1        1.060  -4.945   0.662  0.00  0.00    -0.070 A 
ATOM     14  C   LIG    1        2.121  -4.185   1.416  0.00  0.00    +0.090 C 
ENDBRANCH   5   8
TORSDOF 1
ENDMDL
MODEL      701
REMARK  Name = ZINC000004530478
REMARK                            x       y       z     vdW  Elec       q    Type
REMARK                         _______ _______ _______ _____ _____    ______ ____
ROOT
ATOM      1  C   LIG    1        0.291   1.280  -0.134  0.00  0.00    +0.040 C 
ATOM      2  C   LIG    1        0.064  -0.228  -0.010  0.00  0.00    +0.210 C 
ENDROOT
BRANCH   2   3
ATOM      3  C   LIG    1        0.693  -0.728   1.265  0.00  0.00    -0.090 A 
ATOM      4  C   LIG    1       -0.011  -0.664   2.453  0.00  0.00    +0.040 A 
ATOM      5  C   LIG    1        0.566  -1.122   3.623  0.00  0.00    +0.000 A 
ATOM      6  C   LIG    1        1.846  -1.645   3.605  0.00  0.00    +0.000 A 
ATOM      7  C   LIG    1        2.549  -1.709   2.416  0.00  0.00    +0.010 A 
ATOM      8  C   LIG    1        1.971  -1.255   1.246  0.00  0.00    +0.010 A 
ENDBRANCH   2   3
BRANCH   2   9
ATOM      9  O   LIG    1       -1.339  -0.499   0.012  0.00  0.00    -0.310 OA
BRANCH   9  10
ATOM     10  C   LIG    1       -1.965  -0.607  -1.189  0.00  0.00    +0.130 A 
ATOM     11  C   LIG    1       -3.302  -0.975  -1.244  0.00  0.00    -0.020 A 
ATOM     12  C   LIG    1       -3.937  -1.084  -2.466  0.00  0.00    +0.050 A 
ATOM     13  C   LIG    1       -3.242  -0.826  -3.633  0.00  0.00    -0.040 A 
ATOM     14  C   LIG    1       -1.909  -0.460  -3.581  0.00  0.00    +0.040 A 
ATOM     15  C   LIG    1       -1.272  -0.344  -2.361  0.00  0.00    -0.080 A 
ENDBRANCH   9  10
ENDBRANCH   2   9
TORSDOF 3
ENDMDL
MODEL      702
REMARK  Name = ZINC000079929931
REMARK                            x       y       z     vdW  Elec       q    Type
REMARK                         _______ _______ _______ _____ _____    ______ ____
ROOT
ATOM      1  C   LIG    1        2.630  -0.566  -2.552  0.00  0.00    -0.090 A 
ATOM      2  C   LIG    1        3.267  -1.793  -2.545  0.00  0.00    +0.040 A 
ATOM      3  C   LIG    1        3.822  -2.290  -3.709  0.00  0.00    +0.030 A 
ATOM      4  C   LIG    1        3.740  -1.560  -4.881  0.00  0.00    -0.030 A 
ATOM      5  C   LIG    1        3.102  -0.332  -4.887  0.00  0.00    +0.030 A 
ATOM      6 CL   LIG    1        4.435  -2.184  -6.344  0.00  0.00    -0.070 Cl
ATOM      7  C   LIG    1        2.543   0.162  -3.724  0.00  0.00    +0.040 A 
ENDROOT
BRANCH   1   8
ATOM      8  C   LIG    1        2.026  -0.024  -1.282  0.00  0.00    +0.220 C 
BRANCH   8   9
ATOM      9  O   LIG    1        0.671  -0.465  -1.174  0.00  0.00    -0.370 OA
BRANCH   9  11
ATOM     10  C   LIG    1       -0.019   1.526   0.010  0.00  0.00    +0.020 C 
ATOM     11  C   LIG    1        0.002  -0.004   0.002  0.00  0.00    +0.110 C 
ATOM     12  C   LIG    1       -1.433  -0.534   0.013  0.00  0.00    +0.050 C 
ATOM     13  C   LIG    1        0.742  -0.511   1.242  0.00  0.00    +0.020 C 
ENDBRANCH   9  11
ENDBRANCH   8   9
ENDBRANCH   1   8
TORSDOF 3
ENDMDL
MODEL      703
REMARK  Name = ZINC000169828464
REMARK                            x       y       z     vdW  Elec       q    Type
REMARK                         _______ _______ _______ _____ _____    ______ ____
ROOT
ATOM      1  C   LIG    1        0.915  -0.252  -1.603  0.00  0.00    -0.290 C 
ATOM      2  C   LIG    1        0.241   0.568  -2.705  0.00  0.00    +0.020 C 
ATOM      3  C   LIG    1       -0.236  -0.367  -3.818  0.00  0.00    -0.010 C 
ATOM      4  C   LIG    1        0.963  -1.118  -4.402  0.00  0.00    +0.010 C 
ATOM      5  C   LIG    1        1.636  -1.938  -3.300  0.00  0.00    +0.010 C 
ATOM      6  C   LIG    1       -1.238  -1.372  -3.245  0.00  0.00    +0.000 C 
ATOM      7  C   LIG    1       -0.564  -2.192  -2.144  0.00  0.00    +0.000 C 
ATOM      8  C   LIG    1        0.887  -1.734  -1.982  0.00  0.00    +0.000 C 
ENDROOT
BRANCH   1  10
ATOM      9  C   LIG    1        0.553   1.592   0.789  0.00  0.00    -0.240 C 
ATOM     10 SI   LIG    1        0.002  -0.004   0.002  0.00  0.00    +1.000 Si
ATOM     11  C   LIG    1       -1.830   0.067  -0.330  0.00  0.00    -0.230 C 
ATOM     12  C   LIG    1        0.371  -1.423   1.152  0.00  0.00    -0.240 C 
ENDBRANCH   1  10
TORSDOF 1
ENDMDL
MODEL      704
REMARK  Name = ZINC000080401455
REMARK                            x       y       z     vdW  Elec       q    Type
REMARK                         _______ _______ _______ _____ _____    ______ ____
ROOT
ATOM      1  C   LIG    1       -1.416  -2.035  -0.119  0.00  0.00    -0.070 A 
ATOM      2  C   LIG    1       -0.773  -2.805   0.832  0.00  0.00    +0.030 A 
ATOM      3  C   LIG    1       -0.757  -4.181   0.712  0.00  0.00    +0.020 A 
ATOM      4  C   LIG    1       -1.384  -4.789  -0.361  0.00  0.00    -0.040 A 
ATOM      5  C   LIG    1       -2.027  -4.018  -1.313  0.00  0.00    +0.020 A 
ATOM      6 CL   LIG    1       -1.365  -6.518  -0.513  0.00  0.00    -0.070 Cl
ATOM      7  C   LIG    1       -2.047  -2.642  -1.189  0.00  0.00    +0.020 A 
ENDROOT
BRANCH   1   8
ATOM      8  C   LIG    1       -1.433  -0.534   0.013  0.00  0.00    +0.030 C 
ATOM      9  C   LIG    1       -2.110  -0.145   1.329  0.00  0.00    +0.030 C 
BRANCH   8  11
ATOM     10  C   LIG    1       -0.019   1.526   0.010  0.00  0.00    +0.010 C 
ATOM     11  C   LIG    1        0.002  -0.004   0.002  0.00  0.00    +0.000 C 
ENDBRANCH   8  11
ENDBRANCH   1   8
TORSDOF 2
ENDMDL
MODEL      705
REMARK  Name = ZINC000001086602
REMARK                            x       y       z     vdW  Elec       q    Type
REMARK                         _______ _______ _______ _____ _____    ______ ____
ROOT
ATOM      1  C   LIG    1       -0.141   1.451   0.452  0.00  0.00    +0.040 C 
ATOM      2  C   LIG    1        0.002  -0.004   0.002  0.00  0.00    +0.080 C 
ENDROOT
BRANCH   2   3
ATOM      3  C   LIG    1        0.844  -0.063  -1.246  0.00  0.00    -0.080 A 
ATOM      4  C   LIG    1        2.082   0.552  -1.273  0.00  0.00    +0.030 A 
ATOM      5  C   LIG    1        2.856   0.499  -2.416  0.00  0.00    -0.010 A 
ATOM      6  C   LIG    1        2.391  -0.172  -3.538  0.00  0.00    +0.100 A 
ATOM      7  C   LIG    1        1.148  -0.789  -3.508  0.00  0.00    -0.010 A 
ATOM      8  C   LIG    1        0.380  -0.737  -2.361  0.00  0.00    +0.030 A 
BRANCH   6   9
ATOM      9  O   LIG    1        3.151  -0.226  -4.663  0.00  0.00    -0.500 OA
ATOM     10  H   LIG    1        3.747  -0.986  -4.699  0.00  0.00    +0.390 HD
ENDBRANCH   6   9
ENDBRANCH   2   3
BRANCH   2  11
ATOM     11  C   LIG    1        0.665  -0.805   1.093  0.00  0.00    -0.070 A 
ATOM     12  C   LIG    1        0.083  -1.976   1.541  0.00  0.00    +0.000 A 
ATOM     13  C   LIG    1        0.691  -2.711   2.542  0.00  0.00    +0.000 A 
ATOM     14  C   LIG    1        1.880  -2.273   3.095  0.00  0.00    +0.000 A 
ATOM     15  C   LIG    1        2.462  -1.102   2.647  0.00  0.00    +0.000 A 
ATOM     16  C   LIG    1        1.856  -0.370   1.643  0.00  0.00    +0.000 A 
ENDBRANCH   2  11
TORSDOF 3
ENDMDL
MODEL      706
REMARK  Name = ZINC000066324320
REMARK                            x       y       z     vdW  Elec       q    Type
REMARK                         _______ _______ _______ _____ _____    ______ ____
ROOT
ATOM      1  C   LIG    1       -0.016   1.358   0.009  0.00  0.00    +0.030 A 
ATOM      2  C   LIG    1        1.166   2.084   0.002  0.00  0.00    +0.040 A 
ATOM      3  C   LIG    1        2.377   1.430  -0.013  0.00  0.00    +0.060 A 
ATOM      4  C   LIG    1        2.416   0.037  -0.021  0.00  0.00    -0.190 A 
ATOM      5  S   LIG    1        3.761  -1.098  -0.040  0.00  0.00    +0.090 S 
ATOM      6  C   LIG    1        2.680  -2.418  -0.037  0.00  0.00    +0.110 A 
ATOM      7  N   LIG    1        1.462  -2.027  -0.023  0.00  0.00    -0.470 NA
ATOM      8  C   LIG    1        1.227  -0.701  -0.013  0.00  0.00    +0.080 A 
ATOM      9  C   LIG    1        0.002  -0.004   0.002  0.00  0.00    +0.060 A 
ENDROOT
BRANCH   6  10
ATOM     10  C   LIG    1        3.106  -3.864  -0.048  0.00  0.00    +0.060 C 
ATOM     11  C   LIG    1        2.216  -4.775   0.813  0.00  0.00    +0.040 C 
ATOM     12  C   LIG    1        2.338  -5.821  -0.307  0.00  0.00    +0.010 C 
ATOM     13  C   LIG    1        2.593  -4.647  -1.268  0.00  0.00    +0.040 C 
ENDBRANCH   6  10
TORSDOF 1
ENDMDL
MODEL      707
REMARK  Name = ZINC000068568758
REMARK                            x       y       z     vdW  Elec       q    Type
REMARK                         _______ _______ _______ _____ _____    ______ ____
ROOT
ATOM      1  C   LIG    1        4.171  -0.963   1.400  0.00  0.00    +0.060 C 
ATOM      2  C   LIG    1        5.557  -1.603   1.483  0.00  0.00    +0.120 C 
ATOM      3  C   LIG    1        4.823  -2.786   2.078  0.00  0.00    -0.130 A 
ATOM      4  C   LIG    1        4.948  -4.067   2.599  0.00  0.00    +0.020 A 
ATOM      5  C   LIG    1        3.833  -4.754   3.035  0.00  0.00    +0.000 A 
ATOM      6  C   LIG    1        2.583  -4.170   2.957  0.00  0.00    +0.010 A 
ATOM      7  C   LIG    1        2.452  -2.895   2.440  0.00  0.00    +0.030 A 
ATOM      8  C   LIG    1        3.567  -2.206   2.003  0.00  0.00    -0.120 A 
ENDROOT
BRANCH   1   9
ATOM      9  C   LIG    1        3.711  -0.707  -0.037  0.00  0.00    +0.090 C 
BRANCH   9  13
ATOM     10  C   LIG    1       -0.017   1.378   0.010  0.00  0.00    +0.000 A 
ATOM     11  C   LIG    1        1.171   2.086   0.002  0.00  0.00    +0.000 A 
ATOM     12  C   LIG    1        2.377   1.411  -0.013  0.00  0.00    +0.000 A 
ATOM     13  C   LIG    1        2.396   0.029  -0.020  0.00  0.00    -0.080 A 
ATOM     14  C   LIG    1        1.208  -0.679  -0.011  0.00  0.00    +0.010 A 
ATOM     15  C   LIG    1        0.002  -0.004   0.002  0.00  0.00    +0.000 A 
ENDBRANCH   9  13
ENDBRANCH   1   9
TORSDOF 2
ENDMDL
MODEL      708
REMARK  Name = ZINC000068568760
REMARK                            x       y       z     vdW  Elec       q    Type
REMARK                         _______ _______ _______ _____ _____    ______ ____
ROOT
ATOM      1  C   LIG    1        4.171  -0.963   1.400  0.00  0.00    +0.060 C 
ATOM      2  C   LIG    1        5.441  -1.810   1.483  0.00  0.00    +0.120 C 
ATOM      3  C   LIG    1        6.065  -0.564   2.076  0.00  0.00    -0.130 A 
ATOM      4  C   LIG    1        7.223   0.000   2.596  0.00  0.00    +0.020 A 
ATOM      5  C   LIG    1        7.225   1.310   3.031  0.00  0.00    +0.000 A 
ATOM      6  C   LIG    1        6.073   2.070   2.954  0.00  0.00    +0.010 A 
ATOM      7  C   LIG    1        4.918   1.513   2.438  0.00  0.00    +0.030 A 
ATOM      8  C   LIG    1        4.913   0.202   2.001  0.00  0.00    -0.120 A 
ENDROOT
BRANCH   1   9
ATOM      9  C   LIG    1        3.711  -0.707  -0.037  0.00  0.00    +0.090 C 
BRANCH   9  13
ATOM     10  C   LIG    1       -0.017   1.378   0.010  0.00  0.00    +0.000 A 
ATOM     11  C   LIG    1        1.171   2.086   0.002  0.00  0.00    +0.000 A 
ATOM     12  C   LIG    1        2.377   1.411  -0.013  0.00  0.00    +0.010 A 
ATOM     13  C   LIG    1        2.396   0.029  -0.020  0.00  0.00    -0.080 A 
ATOM     14  C   LIG    1        1.208  -0.679  -0.011  0.00  0.00    +0.000 A 
ATOM     15  C   LIG    1        0.002  -0.004   0.002  0.00  0.00    +0.000 A 
ENDBRANCH   9  13
ENDBRANCH   1   9
TORSDOF 2
ENDMDL
MODEL      709
REMARK  Name = ZINC000001586388
REMARK                            x       y       z     vdW  Elec       q    Type
REMARK                         _______ _______ _______ _____ _____    ______ ____
ROOT
ATOM      1  N   LIG    1        0.020  -0.017   2.416  0.00  0.00    -0.740 N 
ATOM      2  H   LIG    1        0.011   0.953   2.423  0.00  0.00    +0.400 HD
ENDROOT
BRANCH   1   9
ATOM      3  C   LIG    1       -0.018   1.503   0.010  0.00  0.00    +0.080 C 
ATOM      4  C   LIG    1        0.002  -0.004   0.002  0.00  0.00    -0.160 A 
ATOM      5  C   LIG    1        0.006  -0.689  -1.197  0.00  0.00    +0.050 A 
ATOM      6  C   LIG    1        0.024  -2.072  -1.206  0.00  0.00    -0.060 A 
ATOM      7  C   LIG    1        0.039  -2.773  -0.014  0.00  0.00    +0.040 A 
ATOM      8  C   LIG    1        0.036  -2.095   1.189  0.00  0.00    -0.080 A 
ATOM      9  C   LIG    1        0.023  -0.706   1.201  0.00  0.00    +0.220 A 
ENDBRANCH   1   9
BRANCH   1  10
ATOM     10  C   LIG    1        0.030  -0.758   3.679  0.00  0.00    +0.310 C 
BRANCH  10  11
ATOM     11  C   LIG    1        0.024   0.212   4.832  0.00  0.00    -0.110 A 
ATOM     12  C   LIG    1        1.219   0.673   5.353  0.00  0.00    +0.020 A 
ATOM     13  C   LIG    1        1.213   1.564   6.411  0.00  0.00    +0.000 A 
ATOM     14  C   LIG    1        0.013   1.994   6.946  0.00  0.00    +0.010 A 
ATOM     15  C   LIG    1       -1.181   1.534   6.424  0.00  0.00    +0.000 A 
ATOM     16  C   LIG    1       -1.175   0.646   5.364  0.00  0.00    +0.020 A 
ENDBRANCH  10  11
ENDBRANCH   1  10
TORSDOF 3
ENDMDL
MODEL      710
REMARK  Name = ZINC000007277328
REMARK                            x       y       z     vdW  Elec       q    Type
REMARK                         _______ _______ _______ _____ _____    ______ ____
ROOT
ATOM      1  N   LIG    1        0.056  -0.038   2.447  0.00  0.00    -0.740 N 
ATOM      2  H   LIG    1       -0.888   0.180   2.413  0.00  0.00    +0.400 HD
ENDROOT
BRANCH   1   9
ATOM      3  C   LIG    1       -0.019   1.526   0.010  0.00  0.00    +0.030 C 
ATOM      4  C   LIG    1        0.002  -0.004   0.002  0.00  0.00    -0.030 C 
ATOM      5  C   LIG    1        0.718  -0.497  -1.257  0.00  0.00    +0.020 C 
ATOM      6  C   LIG    1        0.739  -2.027  -1.265  0.00  0.00    +0.000 C 
ATOM      7  C   LIG    1        1.479  -2.534  -0.026  0.00  0.00    +0.000 C 
ATOM      8  C   LIG    1        0.763  -2.041   1.233  0.00  0.00    -0.010 C 
ATOM      9  C   LIG    1        0.742  -0.511   1.242  0.00  0.00    +0.240 C 
ENDBRANCH   1   9
BRANCH   1  10
ATOM     10  C   LIG    1        0.763   0.098   3.644  0.00  0.00    +0.220 A 
ATOM     11  C   LIG    1        2.117  -0.208   3.692  0.00  0.00    -0.080 A 
ATOM     12  C   LIG    1        2.812  -0.072   4.878  0.00  0.00    +0.050 A 
ATOM     13  C   LIG    1        2.162   0.369   6.016  0.00  0.00    -0.060 A 
ATOM     14  C   LIG    1        0.814   0.674   5.971  0.00  0.00    +0.050 A 
ATOM     15  C   LIG    1        0.114   0.546   4.788  0.00  0.00    -0.080 A 
ENDBRANCH   1  10
TORSDOF 2
ENDMDL
MODEL      711
REMARK  Name = ZINC000045071597
REMARK                            x       y       z     vdW  Elec       q    Type
REMARK                         _______ _______ _______ _____ _____    ______ ____
ROOT
ATOM      1  C   LIG    1       -0.070   0.002  -2.463  0.00  0.00    -0.100 C 
ATOM      2  C   LIG    1       -0.266  -0.549  -3.652  0.00  0.00    -0.130 C 
ATOM      3  C   LIG    1       -0.222   0.497  -4.741  0.00  0.00    +0.060 C 
ATOM      4  C   LIG    1       -0.388   1.844  -4.003  0.00  0.00    +0.020 C 
ATOM      5  C   LIG    1        0.127   1.494  -2.590  0.00  0.00    +0.050 C 
ENDROOT
BRANCH   1   8
ATOM      6  C   LIG    1       -2.155   0.387  -0.603  0.00  0.00    +0.080 C 
ATOM      7  C   LIG    1       -0.996  -0.521  -0.282  0.00  0.00    -0.120 C 
ATOM      8  C   LIG    1       -0.052  -0.739  -1.192  0.00  0.00    -0.010 C 
ATOM      9  C   LIG    1       -0.907  -1.181   1.069  0.00  0.00    +0.080 C 
ENDBRANCH   1   8
BRANCH   2  10
ATOM     10  C   LIG    1       -0.501  -2.019  -3.885  0.00  0.00    +0.080 C 
BRANCH  10  11
ATOM     11  C   LIG    1       -2.005  -2.292  -3.949  0.00  0.00    +0.040 C 
BRANCH  11  12
ATOM     12  C   LIG    1       -2.240  -3.762  -4.183  0.00  0.00    +0.350 C 
ATOM     13  O   LIG    1       -1.301  -4.514  -4.288  0.00  0.00    -0.460 OA
ATOM     14  C   LIG    1       -3.647  -4.293  -4.286  0.00  0.00    +0.050 C 
ENDBRANCH  11  12
ENDBRANCH  10  11
ENDBRANCH   2  10
TORSDOF 4
ENDMDL
MODEL      712
REMARK  Name = ZINC000019921169
REMARK                            x       y       z     vdW  Elec       q    Type
REMARK                         _______ _______ _______ _____ _____    ______ ____
ROOT
ATOM      1  N   LIG    1       -1.413  -1.998   0.005  0.00  0.00    -0.740 N 
ATOM      2  H   LIG    1       -0.642  -2.475   0.350  0.00  0.00    +0.400 HD
ENDROOT
BRANCH   1   3
ATOM      3  C   LIG    1       -2.506  -2.709  -0.500  0.00  0.00    +0.220 A 
ATOM      4  C   LIG    1       -3.608  -2.028  -1.000  0.00  0.00    -0.060 A 
ATOM      5  C   LIG    1       -4.686  -2.733  -1.498  0.00  0.00    +0.070 A 
ATOM      6  C   LIG    1       -4.668  -4.117  -1.500  0.00  0.00    -0.100 A 
ATOM      7  C   LIG    1       -3.571  -4.798  -1.003  0.00  0.00    +0.070 A 
ATOM      8 CL   LIG    1       -6.025  -5.000  -2.127  0.00  0.00    -0.080 Cl
ATOM      9  C   LIG    1       -2.488  -4.098  -0.508  0.00  0.00    -0.060 A 
ENDBRANCH   1   3
BRANCH   1  10
ATOM     10  C   LIG    1       -1.433  -0.534   0.013  0.00  0.00    +0.230 C 
ATOM     11  C   LIG    1       -2.149  -0.040   1.272  0.00  0.00    +0.020 C 
BRANCH  10  13
ATOM     12  C   LIG    1       -0.019   1.526   0.010  0.00  0.00    +0.030 C 
ATOM     13  C   LIG    1        0.002  -0.004   0.002  0.00  0.00    -0.020 C 
ATOM     14  C   LIG    1        0.742  -0.511   1.242  0.00  0.00    +0.020 C 
ENDBRANCH  10  13
ENDBRANCH   1  10
TORSDOF 3
ENDMDL
MODEL      713
REMARK  Name = ZINC000066325555
REMARK                            x       y       z     vdW  Elec       q    Type
REMARK                         _______ _______ _______ _____ _____    ______ ____
ROOT
ATOM      1  F   LIG    1        0.002  -0.004   0.002  0.00  0.00    -0.110 F 
ATOM      2  C   LIG    1       -0.016   1.347   0.009  0.00  0.00    +0.130 A 
ATOM      3  C   LIG    1       -1.225   2.023   0.030  0.00  0.00    -0.060 A 
ATOM      4  C   LIG    1       -1.242   3.406   0.038  0.00  0.00    +0.090 A 
ATOM      5  C   LIG    1       -0.054   4.114   0.026  0.00  0.00    -0.030 A 
ATOM      6  C   LIG    1        1.154   3.439   0.005  0.00  0.00    +0.090 A 
ATOM      7 CL   LIG    1       -0.077   5.850   0.036  0.00  0.00    -0.030 Cl
ATOM      8 CL   LIG    1       -2.717   1.136   0.047  0.00  0.00    -0.020 Cl
ATOM      9  C   LIG    1        1.174   2.056   0.002  0.00  0.00    -0.060 A 
ATOM     10 CL   LIG    1        2.689   1.210  -0.024  0.00  0.00    -0.020 Cl
ENDROOT
TORSDOF 0
ENDMDL
MODEL      714
REMARK  Name = ZINC000082588149
REMARK                            x       y       z     vdW  Elec       q    Type
REMARK                         _______ _______ _______ _____ _____    ______ ____
ROOT
ATOM      1  C   LIG    1       -0.018   1.503   0.010  0.00  0.00    +0.100 C 
ATOM      2  C   LIG    1        0.002  -0.004   0.002  0.00  0.00    -0.180 A 
ATOM      3  C   LIG    1        0.009  -0.797  -1.081  0.00  0.00    +0.220 A 
ATOM      4  N   LIG    1        0.028  -2.110  -0.699  0.00  0.00    -0.600 N 
ATOM      5  H   LIG    1        0.036  -2.867  -1.305  0.00  0.00    +0.420 HD
ATOM      6  C   LIG    1        0.035  -2.197   0.676  0.00  0.00    +0.090 A 
ATOM      7  C   LIG    1        0.052  -3.264   1.567  0.00  0.00    -0.010 A 
ATOM      8  C   LIG    1        0.054  -3.022   2.924  0.00  0.00    +0.030 A 
ATOM      9  C   LIG    1        0.038  -1.723   3.411  0.00  0.00    -0.100 A 
ATOM     10  C   LIG    1        0.021  -0.660   2.553  0.00  0.00    +0.050 A 
ATOM     11  C   LIG    1        0.025  -0.882   1.175  0.00  0.00    -0.100 A 
ENDROOT
BRANCH   9  12
ATOM     12  C   LIG    1        0.041  -1.483   4.899  0.00  0.00    -0.030 C 
ATOM     13  C   LIG    1       -1.217  -0.706   5.293  0.00  0.00    +0.040 C 
ATOM     14  C   LIG    1        1.281  -0.672   5.282  0.00  0.00    +0.040 C 
ATOM     15  C   LIG    1        0.062  -2.825   5.633  0.00  0.00    +0.040 C 
ENDBRANCH   9  12
TORSDOF 1
ENDMDL
MODEL      715
REMARK  Name = ZINC000071785924
REMARK                            x       y       z     vdW  Elec       q    Type
REMARK                         _______ _______ _______ _____ _____    ______ ____
ROOT
ATOM      1  C   LIG    1       -0.017   1.381   0.010  0.00  0.00    +0.000 A 
ATOM      2  C   LIG    1        1.169   2.091   0.002  0.00  0.00    +0.000 A 
ATOM      3  C   LIG    1        2.381   1.421  -0.012  0.00  0.00    +0.020 A 
ATOM      4  C   LIG    1        2.398   0.048  -0.019  0.00  0.00    -0.090 A 
ATOM      5  C   LIG    1        1.205  -0.667  -0.012  0.00  0.00    -0.090 A 
ATOM      6  C   LIG    1        1.578  -2.151  -0.025  0.00  0.00    +0.100 C 
ATOM      7  C   LIG    1        2.880  -2.103   0.865  0.00  0.00    +0.070 C 
ATOM      8  C   LIG    1        2.216  -2.364  -1.400  0.00  0.00    -0.090 A 
ATOM      9  C   LIG    1        1.831  -3.076  -2.510  0.00  0.00    +0.020 A 
ATOM     10  C   LIG    1        2.640  -3.080  -3.635  0.00  0.00    +0.000 A 
ATOM     11  C   LIG    1        3.826  -2.372  -3.640  0.00  0.00    +0.000 A 
ATOM     12  C   LIG    1        4.213  -1.654  -2.520  0.00  0.00    +0.020 A 
ATOM     13  C   LIG    1        3.409  -1.651  -1.405  0.00  0.00    -0.090 A 
ATOM     14  C   LIG    1        3.531  -0.982  -0.034  0.00  0.00    +0.100 C 
ATOM     15  C   LIG    1        0.002  -0.004   0.002  0.00  0.00    +0.020 A 
ENDROOT
TORSDOF 0
ENDMDL
MODEL      716
REMARK  Name = ZINC000071785753
REMARK                            x       y       z     vdW  Elec       q    Type
REMARK                         _______ _______ _______ _____ _____    ______ ____
ROOT
ATOM      1  C   LIG    1       -0.019   1.526   0.010  0.00  0.00    +0.040 C 
ATOM      2  C   LIG    1        0.002  -0.004   0.002  0.00  0.00    +0.030 C 
ATOM      3  C   LIG    1       -1.406  -0.529   0.141  0.00  0.00    -0.040 C 
ATOM      4  C   LIG    1       -2.011  -0.389   1.303  0.00  0.00    -0.050 C 
ATOM      5  C   LIG    1       -1.245   0.285   2.418  0.00  0.00    +0.070 C 
ATOM      6  C   LIG    1        0.141  -0.363   2.521  0.00  0.00    -0.030 C 
ATOM      7  C   LIG    1        0.047  -1.887   2.514  0.00  0.00    -0.040 C 
ATOM      8  C   LIG    1        0.684  -2.013   1.363  0.00  0.00    -0.040 C 
ATOM      9  C   LIG    1        0.922   0.124   3.728  0.00  0.00    +0.030 C 
ATOM     10  C   LIG    1        2.180   0.894   3.327  0.00  0.00    +0.000 C 
ATOM     11  C   LIG    1        3.004  -0.015   2.403  0.00  0.00    +0.000 C 
ATOM     12  C   LIG    1        2.293  -0.069   1.056  0.00  0.00    +0.030 C 
ATOM     13  C   LIG    1        0.850  -0.515   1.184  0.00  0.00    -0.020 C 
ENDROOT
TORSDOF 0
ENDMDL
MODEL      717
REMARK  Name = ZINC000071786476
REMARK                            x       y       z     vdW  Elec       q    Type
REMARK                         _______ _______ _______ _____ _____    ______ ____
ROOT
ATOM      1  C   LIG    1       -0.138   1.410  -0.093  0.00  0.00    +0.020 C 
ATOM      2  C   LIG    1       -0.076  -0.115   0.009  0.00  0.00    -0.020 C 
ATOM      3  C   LIG    1       -1.496  -0.691   0.190  0.00  0.00    +0.010 C 
ATOM      4  C   LIG    1       -1.643  -0.865   1.722  0.00  0.00    +0.020 C 
ATOM      5  C   LIG    1       -0.231  -1.340   2.148  0.00  0.00    +0.030 C 
ATOM      6  C   LIG    1        0.729  -0.528   1.253  0.00  0.00    -0.020 C 
ATOM      7  C   LIG    1        1.215   0.716   1.999  0.00  0.00    +0.040 C 
ENDROOT
BRANCH   6   8
ATOM      8  C   LIG    1        1.904  -1.381   0.850  0.00  0.00    -0.070 A 
ATOM      9  C   LIG    1        1.700  -2.539   0.122  0.00  0.00    +0.000 A 
ATOM     10  C   LIG    1        2.778  -3.321  -0.248  0.00  0.00    +0.000 A 
ATOM     11  C   LIG    1        4.060  -2.946   0.109  0.00  0.00    -0.010 A 
ATOM     12  C   LIG    1        4.263  -1.787   0.835  0.00  0.00    +0.000 A 
ATOM     13  C   LIG    1        3.186  -1.003   1.202  0.00  0.00    +0.000 A 
ENDBRANCH   6   8
TORSDOF 1
ENDMDL
MODEL      718
REMARK  Name = ZINC000082865257
REMARK                            x       y       z     vdW  Elec       q    Type
REMARK                         _______ _______ _______ _____ _____    ______ ____
ROOT
ATOM      1  C   LIG    1        2.078  -4.553  -3.590  0.00  0.00    +0.140 A 
ATOM      2  C   LIG    1        2.645  -3.785  -4.596  0.00  0.00    -0.080 A 
ATOM      3  C   LIG    1        3.259  -4.400  -5.671  0.00  0.00    +0.070 A 
ATOM      4  C   LIG    1        3.308  -5.779  -5.744  0.00  0.00    -0.010 A 
ATOM      5  C   LIG    1        2.743  -6.548  -4.742  0.00  0.00    +0.000 A 
ATOM      6 CL   LIG    1        2.806  -8.280  -4.837  0.00  0.00    -0.060 Cl
ATOM      7  C   LIG    1        2.133  -5.937  -3.661  0.00  0.00    -0.010 A 
ENDROOT
BRANCH   1   8
ATOM      8  O   LIG    1        1.474  -3.950  -2.532  0.00  0.00    -0.310 OA
BRANCH   8   9
ATOM      9  C   LIG    1        1.455  -2.521  -2.524  0.00  0.00    +0.180 C 
BRANCH   9  10
ATOM     10  C   LIG    1        0.739  -2.027  -1.265  0.00  0.00    +0.040 C 
BRANCH  10  11
ATOM     11  C   LIG    1        0.718  -0.497  -1.257  0.00  0.00    +0.020 C 
BRANCH  11  13
ATOM     12  C   LIG    1       -0.019   1.526   0.010  0.00  0.00    +0.010 C 
ATOM     13  C   LIG    1        0.002  -0.004   0.002  0.00  0.00    +0.000 C 
ENDBRANCH  11  13
ENDBRANCH  10  11
ENDBRANCH   9  10
ENDBRANCH   8   9
ENDBRANCH   1   8
TORSDOF 5
ENDMDL
MODEL      719
REMARK  Name = ZINC000019772200
REMARK                            x       y       z     vdW  Elec       q    Type
REMARK                         _______ _______ _______ _____ _____    ______ ____
ROOT
ATOM      1  C   LIG    1        0.653  -0.006   3.667  0.00  0.00    +0.210 A 
ATOM      2  C   LIG    1        2.024  -0.219   3.743  0.00  0.00    -0.070 A 
ATOM      3  C   LIG    1        2.675  -0.086   4.954  0.00  0.00    +0.040 A 
ATOM      4  C   LIG    1        1.965   0.259   6.089  0.00  0.00    -0.140 A 
ATOM      5  C   LIG    1        0.600   0.472   6.016  0.00  0.00    +0.050 A 
ATOM      6  C   LIG    1        2.679   0.404   7.408  0.00  0.00    +0.070 C 
ATOM      7  C   LIG    1       -0.057   0.345   4.808  0.00  0.00    -0.160 A 
ATOM      8  C   LIG    1       -1.544   0.577   4.729  0.00  0.00    +0.090 C 
ENDROOT
BRANCH   1   9
ATOM      9  N   LIG    1       -0.008  -0.140   2.444  0.00  0.00    -0.740 N 
ATOM     10  H   LIG    1       -0.965   0.013   2.391  0.00  0.00    +0.400 HD
BRANCH   9  11
ATOM     11  C   LIG    1        0.742  -0.511   1.242  0.00  0.00    +0.230 C 
ATOM     12  C   LIG    1        0.872  -2.034   1.171  0.00  0.00    +0.010 C 
BRANCH  11  14
ATOM     13  C   LIG    1       -0.019   1.526   0.010  0.00  0.00    +0.020 C 
ATOM     14  C   LIG    1        0.002  -0.004   0.002  0.00  0.00    +0.020 C 
ENDBRANCH  11  14
ENDBRANCH   9  11
ENDBRANCH   1   9
TORSDOF 3
ENDMDL
MODEL      720
REMARK  Name = ZINC000019772375
REMARK                            x       y       z     vdW  Elec       q    Type
REMARK                         _______ _______ _______ _____ _____    ______ ____
ROOT
ATOM      1  C   LIG    1        2.849   0.057  -2.394  0.00  0.00    +0.220 A 
ATOM      2  C   LIG    1        2.236  -0.176  -3.619  0.00  0.00    -0.080 A 
ATOM      3  C   LIG    1        2.956  -0.028  -4.789  0.00  0.00    +0.050 A 
ATOM      4  C   LIG    1        4.285   0.350  -4.742  0.00  0.00    -0.060 A 
ATOM      5  C   LIG    1        4.898   0.582  -3.524  0.00  0.00    -0.040 A 
ATOM      6  C   LIG    1        6.347   0.995  -3.478  0.00  0.00    +0.090 C 
ATOM      7  C   LIG    1        4.184   0.442  -2.351  0.00  0.00    -0.170 A 
ATOM      8  C   LIG    1        4.853   0.695  -1.025  0.00  0.00    +0.080 C 
ENDROOT
BRANCH   1   9
ATOM      9  N   LIG    1        2.125  -0.091  -1.209  0.00  0.00    -0.740 N 
ATOM     10  H   LIG    1        2.553   0.075  -0.355  0.00  0.00    +0.400 HD
BRANCH   9  11
ATOM     11  C   LIG    1        0.718  -0.497  -1.257  0.00  0.00    +0.230 C 
ATOM     12  C   LIG    1        0.630  -2.023  -1.329  0.00  0.00    +0.010 C 
BRANCH  11  14
ATOM     13  C   LIG    1       -0.019   1.526   0.010  0.00  0.00    +0.020 C 
ATOM     14  C   LIG    1        0.002  -0.004   0.002  0.00  0.00    +0.020 C 
ENDBRANCH  11  14
ENDBRANCH   9  11
ENDBRANCH   1   9
TORSDOF 3
ENDMDL
MODEL      721
REMARK  Name = ZINC000019906479
REMARK                            x       y       z     vdW  Elec       q    Type
REMARK                         _______ _______ _______ _____ _____    ______ ____
ROOT
ATOM      1  C   LIG    1       -3.500  -0.035  -1.266  0.00  0.00    +0.220 A 
ATOM      2  C   LIG    1       -4.247  -0.283  -0.121  0.00  0.00    -0.050 A 
ATOM      3  C   LIG    1       -5.622  -0.171  -0.156  0.00  0.00    +0.080 A 
ATOM      4  C   LIG    1       -6.260   0.189  -1.337  0.00  0.00    -0.140 A 
ATOM      5  C   LIG    1       -5.513   0.437  -2.482  0.00  0.00    +0.040 A 
ATOM      6  C   LIG    1       -4.137   0.330  -2.445  0.00  0.00    -0.060 A 
ENDROOT
BRANCH   1   7
ATOM      7  N   LIG    1       -2.105  -0.148  -1.230  0.00  0.00    -0.740 N 
ATOM      8  H   LIG    1       -1.584   0.029  -2.029  0.00  0.00    +0.400 HD
BRANCH   7   9
ATOM      9  C   LIG    1       -1.433  -0.534   0.013  0.00  0.00    +0.230 C 
ATOM     10  C   LIG    1       -1.413  -2.059   0.130  0.00  0.00    +0.010 C 
BRANCH   9  12
ATOM     11  C   LIG    1       -0.019   1.526   0.010  0.00  0.00    +0.020 C 
ATOM     12  C   LIG    1        0.002  -0.004   0.002  0.00  0.00    +0.020 C 
ENDBRANCH   9  12
ENDBRANCH   7   9
ENDBRANCH   1   7
BRANCH   4  13
ATOM     13  S   LIG    1       -8.016   0.333  -1.381  0.00  0.00    -0.130 S 
ATOM     14  C   LIG    1       -8.342   0.812  -3.100  0.00  0.00    +0.130 C 
ENDBRANCH   4  13
TORSDOF 4
ENDMDL
MODEL      722
REMARK  Name = ZINC000083530022
REMARK                            x       y       z     vdW  Elec       q    Type
REMARK                         _______ _______ _______ _____ _____    ______ ____
ROOT
ATOM      1  C   LIG    1       -1.412  -0.526   0.013  0.00  0.00    -0.160 A 
ATOM      2  C   LIG    1       -2.152  -0.802   1.097  0.00  0.00    +0.080 A 
ATOM      3  N   LIG    1       -3.386  -1.255   0.717  0.00  0.00    -0.590 N 
ATOM      4  H   LIG    1       -4.095  -1.519   1.324  0.00  0.00    +0.420 HD
ATOM      5  C   LIG    1       -3.472  -1.282  -0.658  0.00  0.00    +0.100 A 
ATOM      6  C   LIG    1       -4.477  -1.649  -1.546  0.00  0.00    +0.010 A 
ATOM      7  C   LIG    1       -4.259  -1.564  -2.904  0.00  0.00    +0.050 A 
ATOM      8  C   LIG    1       -3.042  -1.115  -3.399  0.00  0.00    -0.060 A 
ATOM      9  C   LIG    1       -2.033  -0.746  -2.537  0.00  0.00    +0.070 A 
ATOM     10 CL   LIG    1       -2.791  -1.016  -5.114  0.00  0.00    -0.070 Cl
ATOM     11  C   LIG    1       -1.693  -0.638   2.523  0.00  0.00    +0.140 C 
ATOM     12  C   LIG    1       -2.240  -0.821  -1.159  0.00  0.00    -0.090 A 
ENDROOT
BRANCH   1  14
ATOM     13  C   LIG    1       -0.019   1.526   0.010  0.00  0.00    +0.010 C 
ATOM     14  C   LIG    1        0.002  -0.004   0.002  0.00  0.00    +0.090 C 
ENDBRANCH   1  14
TORSDOF 1
ENDMDL
MODEL      723
REMARK  Name = ZINC000019772238
REMARK                            x       y       z     vdW  Elec       q    Type
REMARK                         _______ _______ _______ _____ _____    ______ ____
ROOT
ATOM      1  C   LIG    1        2.850   0.057  -2.395  0.00  0.00    +0.220 A 
ATOM      2  C   LIG    1        2.236  -0.176  -3.619  0.00  0.00    -0.060 A 
ATOM      3  C   LIG    1        2.955  -0.029  -4.789  0.00  0.00    +0.070 A 
ATOM      4  C   LIG    1        4.285   0.349  -4.743  0.00  0.00    -0.100 A 
ATOM      5  C   LIG    1        4.899   0.582  -3.524  0.00  0.00    +0.070 A 
ATOM      6 CL   LIG    1        5.186   0.534  -6.215  0.00  0.00    -0.080 Cl
ATOM      7  C   LIG    1        4.184   0.442  -2.351  0.00  0.00    -0.060 A 
ENDROOT
BRANCH   1   8
ATOM      8  N   LIG    1        2.125  -0.091  -1.209  0.00  0.00    -0.740 N 
ATOM      9  H   LIG    1        2.553   0.075  -0.355  0.00  0.00    +0.400 HD
BRANCH   8  10
ATOM     10  C   LIG    1        0.718  -0.497  -1.257  0.00  0.00    +0.220 C 
ATOM     11  C   LIG    1        0.630  -2.023  -1.329  0.00  0.00    +0.020 C 
BRANCH  10  13
ATOM     12  C   LIG    1       -0.019   1.526   0.010  0.00  0.00    +0.030 C 
ATOM     13  C   LIG    1        0.002  -0.004   0.002  0.00  0.00    +0.020 C 
ENDBRANCH  10  13
ENDBRANCH   8  10
ENDBRANCH   1   8
TORSDOF 3
ENDMDL
MODEL      724
REMARK  Name = ZINC000083728783
REMARK                            x       y       z     vdW  Elec       q    Type
REMARK                         _______ _______ _______ _____ _____    ______ ____
ROOT
ATOM      1  C   LIG    1       -0.019   1.526   0.010  0.00  0.00    +0.020 C 
ATOM      2  C   LIG    1        0.002  -0.004   0.002  0.00  0.00    -0.060 C 
ATOM      3  C   LIG    1        0.722  -0.498  -1.256  0.00  0.00    +0.040 C 
ATOM      4  C   LIG    1        2.064   0.228  -1.393  0.00  0.00    +0.100 C 
ATOM      5  C   LIG    1        2.801   0.133  -0.078  0.00  0.00    +0.070 A 
ATOM      6  C   LIG    1        2.210  -0.198   1.091  0.00  0.00    -0.160 A 
ATOM      7  C   LIG    1        3.240  -0.184   2.108  0.00  0.00    -0.100 A 
ATOM      8  C   LIG    1        3.220  -0.441   3.482  0.00  0.00    +0.060 A 
ATOM      9  C   LIG    1        4.414  -0.332   4.152  0.00  0.00    -0.030 A 
ATOM     10  C   LIG    1        5.590   0.017   3.508  0.00  0.00    +0.020 A 
ATOM     11  C   LIG    1        5.638   0.278   2.149  0.00  0.00    +0.000 A 
ATOM     12  C   LIG    1        4.442   0.174   1.444  0.00  0.00    +0.100 A 
ATOM     13  N   LIG    1        4.137   0.358   0.126  0.00  0.00    -0.590 N 
ATOM     14  H   LIG    1        4.772   0.610  -0.563  0.00  0.00    +0.410 HD
ATOM     15  C   LIG    1       -1.433  -0.534   0.011  0.00  0.00    +0.040 C 
ATOM     16  C   LIG    1        0.744  -0.513   1.244  0.00  0.00    +0.110 C 
ENDROOT
TORSDOF 0
ENDMDL
MODEL      725
REMARK  Name = ZINC000021011985
REMARK                            x       y       z     vdW  Elec       q    Type
REMARK                         _______ _______ _______ _____ _____    ______ ____
ROOT
ATOM      1  N   LIG    1        1.260  -2.514   2.545  0.00  0.00    -0.740 N 
ATOM      2  H   LIG    1        1.931  -1.978   2.995  0.00  0.00    +0.400 HD
ENDROOT
BRANCH   1   3
ATOM      3  C   LIG    1        0.868  -3.741   3.086  0.00  0.00    +0.210 A 
ATOM      4  C   LIG    1       -0.090  -4.513   2.440  0.00  0.00    -0.080 A 
ATOM      5  C   LIG    1       -0.474  -5.726   2.978  0.00  0.00    +0.050 A 
ATOM      6  C   LIG    1        0.093  -6.172   4.157  0.00  0.00    -0.150 A 
ATOM      7  C   LIG    1        1.047  -5.406   4.803  0.00  0.00    +0.050 A 
ATOM      8  C   LIG    1       -0.329  -7.496   4.740  0.00  0.00    +0.070 C 
ATOM      9  C   LIG    1        1.440  -4.195   4.268  0.00  0.00    -0.070 A 
ENDBRANCH   1   3
BRANCH   1  10
ATOM     10  C   LIG    1        0.655  -2.037   1.299  0.00  0.00    +0.230 C 
ATOM     11  C   LIG    1        1.405  -2.636   0.107  0.00  0.00    +0.010 C 
BRANCH  10  12
ATOM     12  C   LIG    1        0.742  -0.511   1.242  0.00  0.00    -0.020 C 
ATOM     13  C   LIG    1        2.210  -0.086   1.169  0.00  0.00    +0.020 C 
BRANCH  12  15
ATOM     14  C   LIG    1       -0.019   1.526   0.010  0.00  0.00    +0.020 C 
ATOM     15  C   LIG    1        0.002  -0.004   0.002  0.00  0.00    +0.010 C 
ENDBRANCH  12  15
ENDBRANCH  10  12
ENDBRANCH   1  10
TORSDOF 4
ENDMDL
MODEL      726
REMARK  Name = ZINC000080401453
REMARK                            x       y       z     vdW  Elec       q    Type
REMARK                         _______ _______ _______ _____ _____    ______ ____
ROOT
ATOM      1  C   LIG    1       -1.414  -2.036   0.129  0.00  0.00    -0.070 A 
ATOM      2  C   LIG    1       -0.780  -2.795  -0.838  0.00  0.00    +0.030 A 
ATOM      3  C   LIG    1       -0.761  -4.173  -0.732  0.00  0.00    +0.020 A 
ATOM      4  C   LIG    1       -1.377  -4.793   0.341  0.00  0.00    -0.040 A 
ATOM      5  C   LIG    1       -2.011  -4.033   1.307  0.00  0.00    +0.020 A 
ATOM      6 CL   LIG    1       -1.354  -6.524   0.474  0.00  0.00    -0.070 Cl
ATOM      7  C   LIG    1       -2.024  -2.654   1.203  0.00  0.00    +0.020 A 
ENDROOT
BRANCH   1   8
ATOM      8  C   LIG    1       -1.433  -0.534   0.013  0.00  0.00    +0.030 C 
ATOM      9  C   LIG    1       -2.135  -0.131  -1.286  0.00  0.00    +0.030 C 
BRANCH   8  11
ATOM     10  C   LIG    1       -0.019   1.526   0.010  0.00  0.00    +0.010 C 
ATOM     11  C   LIG    1        0.002  -0.004   0.002  0.00  0.00    +0.000 C 
ENDBRANCH   8  11
ENDBRANCH   1   8
TORSDOF 2
ENDMDL
MODEL      727
REMARK  Name = ZINC000022216178
REMARK                            x       y       z     vdW  Elec       q    Type
REMARK                         _______ _______ _______ _____ _____    ______ ____
ROOT
ATOM      1  C   LIG    1       -1.408  -0.537   0.045  0.00  0.00    -0.130 A 
ATOM      2  C   LIG    1       -2.288  -0.176   1.049  0.00  0.00    +0.050 A 
ATOM      3  C   LIG    1       -3.588  -0.641   1.029  0.00  0.00    -0.070 A 
ATOM      4  C   LIG    1       -4.012  -1.472  -0.001  0.00  0.00    +0.210 A 
ATOM      5  C   LIG    1       -3.125  -1.832  -1.008  0.00  0.00    -0.150 A 
ATOM      6  C   LIG    1       -1.828  -1.359  -0.985  0.00  0.00    +0.050 A 
ENDROOT
BRANCH   1   8
ATOM      7  C   LIG    1        0.003   1.502   0.032  0.00  0.00    +0.020 C 
ATOM      8  C   LIG    1        0.010  -0.027   0.070  0.00  0.00    +0.020 C 
ATOM      9  C   LIG    1        0.701  -0.503   1.349  0.00  0.00    +0.020 C 
ENDBRANCH   1   8
BRANCH   5  10
ATOM     10  C   LIG    1       -3.580  -2.732  -2.127  0.00  0.00    +0.020 C 
ATOM     11  C   LIG    1       -2.794  -4.043  -2.079  0.00  0.00    +0.030 C 
ATOM     12  C   LIG    1       -3.336  -2.039  -3.470  0.00  0.00    +0.030 C 
ENDBRANCH   5  10
BRANCH   4  13
ATOM     13  N   LIG    1       -5.326  -1.943  -0.024  0.00  0.00    -0.880 N 
ATOM     14  H   LIG    1       -5.649  -2.442  -0.791  0.00  0.00    +0.400 HD
ATOM     15  H   LIG    1       -5.916  -1.772   0.727  0.00  0.00    +0.400 HD
ENDBRANCH   4  13
TORSDOF 3
ENDMDL
MODEL      728
REMARK  Name = ZINC000020550988
REMARK                            x       y       z     vdW  Elec       q    Type
REMARK                         _______ _______ _______ _____ _____    ______ ____
ROOT
ATOM      1  N   LIG    1        1.535  -2.493  -2.410  0.00  0.00    -0.740 N 
ATOM      2  H   LIG    1        2.131  -1.900  -2.893  0.00  0.00    +0.400 HD
ENDROOT
BRANCH   1   3
ATOM      3  C   LIG    1        1.330  -3.798  -2.864  0.00  0.00    +0.220 A 
ATOM      4  C   LIG    1        0.472  -4.647  -2.178  0.00  0.00    -0.080 A 
ATOM      5  C   LIG    1        0.271  -5.937  -2.630  0.00  0.00    +0.040 A 
ATOM      6  C   LIG    1        0.923  -6.383  -3.764  0.00  0.00    -0.060 A 
ATOM      7  C   LIG    1        1.778  -5.540  -4.450  0.00  0.00    +0.050 A 
ATOM      8  C   LIG    1        1.979  -4.248  -4.007  0.00  0.00    -0.170 A 
ATOM      9  C   LIG    1        2.912  -3.330  -4.755  0.00  0.00    +0.080 C 
ENDBRANCH   1   3
BRANCH   1  10
ATOM     10  C   LIG    1        0.849  -2.021  -1.205  0.00  0.00    +0.230 C 
ATOM     11  C   LIG    1        1.657  -2.422   0.031  0.00  0.00    +0.020 C 
BRANCH  10  12
ATOM     12  C   LIG    1        0.718  -0.497  -1.257  0.00  0.00    -0.030 C 
ATOM     13  C   LIG    1       -0.089  -0.097  -2.493  0.00  0.00    +0.020 C 
BRANCH  12  15
ATOM     14  C   LIG    1       -0.019   1.526   0.010  0.00  0.00    +0.020 C 
ATOM     15  C   LIG    1        0.002  -0.004   0.002  0.00  0.00    +0.010 C 
ENDBRANCH  12  15
ENDBRANCH  10  12
ENDBRANCH   1  10
TORSDOF 4
ENDMDL
MODEL      729
REMARK  Name = ZINC000020018928
REMARK                            x       y       z     vdW  Elec       q    Type
REMARK                         _______ _______ _______ _____ _____    ______ ____
ROOT
ATOM      1  N   LIG    1        1.535  -2.493  -2.410  0.00  0.00    -0.740 N 
ATOM      2  H   LIG    1        2.131  -1.900  -2.893  0.00  0.00    +0.400 HD
ENDROOT
BRANCH   1   3
ATOM      3  C   LIG    1        1.330  -3.800  -2.865  0.00  0.00    +0.190 A 
ATOM      4  C   LIG    1        0.472  -4.649  -2.179  0.00  0.00    -0.050 A 
ATOM      5  C   LIG    1        0.271  -5.939  -2.631  0.00  0.00    +0.050 A 
ATOM      6  C   LIG    1        0.922  -6.386  -3.765  0.00  0.00    -0.020 A 
ATOM      7  C   LIG    1        1.778  -5.544  -4.452  0.00  0.00    +0.020 A 
ATOM      8  C   LIG    1        1.980  -4.250  -4.009  0.00  0.00    +0.010 A 
ATOM      9  F   LIG    1        2.816  -3.428  -4.681  0.00  0.00    -0.150 F 
ENDBRANCH   1   3
BRANCH   1  10
ATOM     10  C   LIG    1        0.849  -2.021  -1.205  0.00  0.00    +0.230 C 
ATOM     11  C   LIG    1        1.657  -2.422   0.031  0.00  0.00    +0.020 C 
BRANCH  10  12
ATOM     12  C   LIG    1        0.718  -0.497  -1.257  0.00  0.00    -0.030 C 
ATOM     13  C   LIG    1       -0.089  -0.097  -2.493  0.00  0.00    +0.030 C 
BRANCH  12  15
ATOM     14  C   LIG    1       -0.019   1.526   0.010  0.00  0.00    +0.020 C 
ATOM     15  C   LIG    1        0.002  -0.004   0.002  0.00  0.00    +0.010 C 
ENDBRANCH  12  15
ENDBRANCH  10  12
ENDBRANCH   1  10
TORSDOF 4
ENDMDL
MODEL      730
REMARK  Name = ZINC000002033144
REMARK                            x       y       z     vdW  Elec       q    Type
REMARK                         _______ _______ _______ _____ _____    ______ ____
ROOT
ATOM      1  C   LIG    1        0.707  -0.490  -1.238  0.00  0.00    -0.080 A 
ATOM      2  C   LIG    1        0.221  -0.150  -2.486  0.00  0.00    +0.020 A 
ATOM      3  C   LIG    1        0.866  -0.594  -3.625  0.00  0.00    -0.010 A 
ATOM      4  C   LIG    1        2.003  -1.381  -3.514  0.00  0.00    +0.100 A 
ATOM      5  C   LIG    1        2.489  -1.721  -2.260  0.00  0.00    -0.100 A 
ATOM      6  C   LIG    1        1.844  -1.270  -1.125  0.00  0.00    +0.020 A 
ENDROOT
BRANCH   1   8
ATOM      7  C   LIG    1       -0.019   1.526   0.010  0.00  0.00    +0.030 C 
ATOM      8  C   LIG    1        0.002  -0.004   0.002  0.00  0.00    +0.020 C 
ATOM      9  C   LIG    1       -1.433  -0.534   0.013  0.00  0.00    +0.030 C 
ENDBRANCH   1   8
BRANCH   5  10
ATOM     10  C   LIG    1        3.724  -2.576  -2.135  0.00  0.00    +0.020 C 
ATOM     11  C   LIG    1        3.382  -3.860  -1.377  0.00  0.00    +0.040 C 
ATOM     12  C   LIG    1        4.803  -1.805  -1.372  0.00  0.00    +0.030 C 
ENDBRANCH   5  10
BRANCH   4  13
ATOM     13  O   LIG    1        2.639  -1.819  -4.632  0.00  0.00    -0.500 OA
ATOM     14  H   LIG    1        3.326  -1.219  -4.954  0.00  0.00    +0.390 HD
ENDBRANCH   4  13
TORSDOF 3
ENDMDL
MODEL      731
REMARK  Name = ZINC000082375625
REMARK                            x       y       z     vdW  Elec       q    Type
REMARK                         _______ _______ _______ _____ _____    ______ ____
ROOT
ATOM      1  C   LIG    1        3.478   0.748  -0.027  0.00  0.00    +0.150 A 
ATOM      2  C   LIG    1        4.155   1.966  -0.020  0.00  0.00    +0.020 A 
ATOM      3  C   LIG    1        5.529   1.991  -0.032  0.00  0.00    +0.090 A 
ATOM      4  C   LIG    1        6.259   0.799  -0.051  0.00  0.00    -0.160 A 
ATOM      5  S   LIG    1        7.997   0.526  -0.069  0.00  0.00    +0.100 S 
ATOM      6  C   LIG    1        7.792  -1.214  -0.085  0.00  0.00    -0.010 A 
ATOM      7  C   LIG    1        6.517  -1.549  -0.077  0.00  0.00    +0.030 A 
ATOM      8  C   LIG    1        5.591  -0.428  -0.058  0.00  0.00    -0.050 A 
ATOM      9  C   LIG    1        4.180  -0.437  -0.040  0.00  0.00    +0.040 A 
ENDROOT
BRANCH   1  12
ATOM     10  C   LIG    1       -0.017   1.405   0.010  0.00  0.00    -0.050 A 
ATOM     11  C   LIG    1        1.264   1.827  -0.000  0.00  0.00    +0.150 A 
ATOM     12  N   LIG    1        2.075   0.729  -0.014  0.00  0.00    -0.400 N 
ATOM     13  C   LIG    1        1.294  -0.391  -0.012  0.00  0.00    +0.150 A 
ATOM     14  C   LIG    1        0.002  -0.004   0.002  0.00  0.00    -0.050 A 
ENDBRANCH   1  12
TORSDOF 1
ENDMDL
MODEL      732
REMARK  Name = ZINC000059530899
REMARK                            x       y       z     vdW  Elec       q    Type
REMARK                         _______ _______ _______ _____ _____    ______ ____
ROOT
ATOM      1  C   LIG    1        3.711  -0.707  -0.037  0.00  0.00    -0.070 C 
ATOM      2  C   LIG    1        4.113  -1.382   1.268  0.00  0.00    +0.020 C 
ATOM      3  C   LIG    1        4.785  -0.067  -0.903  0.00  0.00    +0.050 C 
ATOM      4  C   LIG    1        5.910  -1.003  -1.159  0.00  0.00    +0.010 C 
ATOM      5  C   LIG    1        5.360  -2.314  -1.732  0.00  0.00    +0.000 C 
ATOM      6  C   LIG    1        4.682  -3.092  -0.605  0.00  0.00    +0.050 C 
ATOM      7  C   LIG    1        3.628  -2.221   0.075  0.00  0.00    -0.030 C 
ENDROOT
BRANCH   1  11
ATOM      8  C   LIG    1       -0.016   1.379   0.010  0.00  0.00    +0.000 A 
ATOM      9  C   LIG    1        0.966   1.697   0.930  0.00  0.00    +0.000 A 
ATOM     10  C   LIG    1        2.172   1.022   0.914  0.00  0.00    +0.010 A 
ATOM     11  C   LIG    1        2.396   0.029  -0.020  0.00  0.00    -0.050 A 
ATOM     12  C   LIG    1        1.414  -0.291  -0.939  0.00  0.00    +0.010 A 
ATOM     13  C   LIG    1        0.208   0.386  -0.925  0.00  0.00    +0.000 A 
ENDBRANCH   1  11
TORSDOF 1
ENDMDL
MODEL      733
REMARK  Name = ZINC000059530898
REMARK                            x       y       z     vdW  Elec       q    Type
REMARK                         _______ _______ _______ _____ _____    ______ ____
ROOT
ATOM      1  C   LIG    1        3.711  -0.707  -0.037  0.00  0.00    -0.070 C 
ATOM      2  C   LIG    1        3.979  -1.563  -1.268  0.00  0.00    +0.020 C 
ATOM      3  C   LIG    1        4.865   0.042   0.612  0.00  0.00    +0.050 C 
ATOM      4  C   LIG    1        6.018  -0.858   0.879  0.00  0.00    +0.010 C 
ATOM      5  C   LIG    1        5.541  -2.070   1.686  0.00  0.00    +0.000 C 
ATOM      6  C   LIG    1        4.754  -2.995   0.758  0.00  0.00    +0.050 C 
ATOM      7  C   LIG    1        3.628  -2.221   0.075  0.00  0.00    -0.030 C 
ENDROOT
BRANCH   1  11
ATOM      8  C   LIG    1       -0.016   1.379   0.012  0.00  0.00    +0.000 A 
ATOM      9  C   LIG    1        0.312   0.525   1.048  0.00  0.00    +0.000 A 
ATOM     10  C   LIG    1        1.518  -0.150   1.032  0.00  0.00    +0.010 A 
ATOM     11  C   LIG    1        2.396   0.029  -0.020  0.00  0.00    -0.050 A 
ATOM     12  C   LIG    1        2.068   0.881  -1.057  0.00  0.00    +0.010 A 
ATOM     13  C   LIG    1        0.862   1.558  -1.041  0.00  0.00    +0.000 A 
ENDBRANCH   1  11
TORSDOF 1
ENDMDL
MODEL      734
REMARK  Name = ZINC000001601476
REMARK                            x       y       z     vdW  Elec       q    Type
REMARK                         _______ _______ _______ _____ _____    ______ ____
ROOT
ATOM      1  C   LIG    1       -0.019   1.526   0.010  0.00  0.00    +0.000 C 
ATOM      2  C   LIG    1        0.002  -0.004   0.002  0.00  0.00    -0.020 C 
ATOM      3  C   LIG    1       -1.433  -0.534   0.013  0.00  0.00    +0.000 C 
ATOM      4  C   LIG    1       -1.413  -2.063   0.004  0.00  0.00    +0.000 C 
ATOM      5  C   LIG    1       -0.673  -2.570   1.244  0.00  0.00    +0.010 C 
ATOM      6  C   LIG    1        0.763  -2.041   1.233  0.00  0.00    +0.030 C 
ATOM      7  C   LIG    1        0.742  -0.511   1.242  0.00  0.00    +0.020 C 
ENDROOT
BRANCH   6   8
ATOM      8  C   LIG    1        1.492  -2.540   2.454  0.00  0.00    -0.080 A 
ATOM      9  C   LIG    1        1.024  -2.224   3.716  0.00  0.00    +0.000 A 
ATOM     10  C   LIG    1        1.692  -2.682   4.836  0.00  0.00    +0.000 A 
ATOM     11  C   LIG    1        2.829  -3.456   4.694  0.00  0.00    -0.010 A 
ATOM     12  C   LIG    1        3.296  -3.773   3.432  0.00  0.00    +0.000 A 
ATOM     13  C   LIG    1        2.625  -3.319   2.312  0.00  0.00    +0.000 A 
ENDBRANCH   6   8
TORSDOF 1
ENDMDL
MODEL      735
REMARK  Name = ZINC000066330523
REMARK                            x       y       z     vdW  Elec       q    Type
REMARK                         _______ _______ _______ _____ _____    ______ ____
ROOT
ATOM      1  C   LIG    1        0.707  -0.490  -1.238  0.00  0.00    -0.160 A 
ATOM      2  C   LIG    1       -0.011  -0.718  -2.396  0.00  0.00    +0.100 A 
ATOM      3  C   LIG    1        0.634  -1.164  -3.535  0.00  0.00    +0.020 A 
ATOM      4  C   LIG    1        2.001  -1.382  -3.515  0.00  0.00    +0.130 A 
ATOM      5  C   LIG    1        2.721  -1.152  -2.353  0.00  0.00    -0.080 A 
ATOM      6 CL   LIG    1        4.435  -1.425  -2.325  0.00  0.00    -0.040 Cl
ATOM      7  F   LIG    1        2.633  -1.817  -4.627  0.00  0.00    -0.120 F 
ATOM      8  C   LIG    1        2.074  -0.702  -1.217  0.00  0.00    +0.100 A 
ENDROOT
BRANCH   1  10
ATOM      9  C   LIG    1       -0.019   1.526   0.010  0.00  0.00    +0.080 C 
ATOM     10  C   LIG    1        0.002  -0.004   0.002  0.00  0.00    +0.340 C 
ATOM     11  F   LIG    1       -1.310  -0.488   0.012  0.00  0.00    -0.190 F 
ATOM     12  F   LIG    1        0.679  -0.468   1.135  0.00  0.00    -0.190 F 
ENDBRANCH   1  10
TORSDOF 1
ENDMDL
MODEL      736
REMARK  Name = ZINC000100009616
REMARK                            x       y       z     vdW  Elec       q    Type
REMARK                         _______ _______ _______ _____ _____    ______ ____
ROOT
ATOM      1  C   LIG    1       -0.017   1.380   0.010  0.00  0.00    +0.050 A 
ATOM      2  C   LIG    1        1.165   2.095   0.002  0.00  0.00    +0.000 A 
ATOM      3  C   LIG    1        2.380   1.429  -0.012  0.00  0.00    +0.070 A 
ATOM      4  C   LIG    1        2.405   0.047  -0.018  0.00  0.00    -0.150 A 
ATOM      5  S   LIG    1        3.939  -0.825  -0.032  0.00  0.00    +0.010 S 
ATOM      6  C   LIG    1        3.498  -2.314  -0.870  0.00  0.00    -0.150 A 
ATOM      7  C   LIG    1        4.434  -3.007  -1.615  0.00  0.00    +0.070 A 
ATOM      8  C   LIG    1        4.069  -4.175  -2.264  0.00  0.00    +0.000 A 
ATOM      9  C   LIG    1        2.774  -4.646  -2.166  0.00  0.00    +0.050 A 
ATOM     10  C   LIG    1        1.833  -3.956  -1.422  0.00  0.00    -0.020 A 
ATOM     11  C   LIG    1        2.187  -2.786  -0.770  0.00  0.00    +0.190 A 
ATOM     12  N   LIG    1        1.237  -2.079  -0.023  0.00  0.00    -0.700 N 
ATOM     13  H   LIG    1        0.583  -2.570   0.498  0.00  0.00    +0.410 HD
ATOM     14  C   LIG    1        1.212  -0.680  -0.013  0.00  0.00    +0.190 A 
ATOM     15  C   LIG    1        0.002  -0.004   0.002  0.00  0.00    -0.020 A 
ENDROOT
TORSDOF 0
ENDMDL
MODEL      737
REMARK  Name = ZINC000037186072
REMARK                            x       y       z     vdW  Elec       q    Type
REMARK                         _______ _______ _______ _____ _____    ______ ____
ROOT
ATOM      1  N   LIG    1       -0.055  -0.114  -2.441  0.00  0.00    -0.740 N 
ATOM      2  H   LIG    1       -0.683  -0.740  -2.833  0.00  0.00    +0.400 HD
ENDROOT
BRANCH   1   3
ATOM      3  C   LIG    1        0.113   1.153  -3.004  0.00  0.00    +0.220 A 
ATOM      4  C   LIG    1        1.017   2.049  -2.446  0.00  0.00    -0.070 A 
ATOM      5  C   LIG    1        1.181   3.300  -3.006  0.00  0.00    +0.040 A 
ATOM      6  C   LIG    1        0.446   3.663  -4.120  0.00  0.00    -0.060 A 
ATOM      7  C   LIG    1       -0.455   2.774  -4.678  0.00  0.00    +0.050 A 
ATOM      8  C   LIG    1       -0.619   1.519  -4.126  0.00  0.00    -0.080 A 
ENDBRANCH   1   3
BRANCH   1   9
ATOM      9  C   LIG    1        0.718  -0.497  -1.257  0.00  0.00    +0.240 C 
BRANCH   9  10
ATOM     10  C   LIG    1        0.849  -2.021  -1.205  0.00  0.00    -0.030 C 
ATOM     11  C   LIG    1        1.657  -2.422   0.031  0.00  0.00    +0.030 C 
ATOM     12  C   LIG    1        1.565  -2.514  -2.464  0.00  0.00    +0.030 C 
ENDBRANCH   9  10
BRANCH   9  14
ATOM     13  C   LIG    1       -0.019   1.526   0.010  0.00  0.00    +0.020 C 
ATOM     14  C   LIG    1        0.002  -0.004   0.002  0.00  0.00    -0.010 C 
ENDBRANCH   9  14
ENDBRANCH   1   9
TORSDOF 4
ENDMDL
MODEL      738
REMARK  Name = ZINC000224198233
REMARK                            x       y       z     vdW  Elec       q    Type
REMARK                         _______ _______ _______ _____ _____    ______ ____
ROOT
ATOM      1  F   LIG    1        0.002  -0.004   0.002  0.00  0.00    -0.130 F 
ATOM      2  C   LIG    1       -0.016   1.347   0.009  0.00  0.00    +0.100 A 
ATOM      3  C   LIG    1       -1.224   2.023   0.030  0.00  0.00    +0.010 A 
ATOM      4  C   LIG    1       -1.241   3.405   0.038  0.00  0.00    +0.060 A 
ATOM      5  C   LIG    1       -0.054   4.113   0.026  0.00  0.00    -0.070 A 
ATOM      6  C   LIG    1        1.153   3.439   0.005  0.00  0.00    +0.060 A 
ATOM      7  C   LIG    1        1.174   2.057   0.002  0.00  0.00    -0.070 A 
ATOM      8 CL   LIG    1        2.690   1.211  -0.024  0.00  0.00    -0.050 Cl
ENDROOT
BRANCH   5   9
ATOM      9  C   LIG    1       -0.075   5.620   0.035  0.00  0.00    +0.020 C 
ATOM     10  C   LIG    1        1.046   6.246   0.880  0.00  0.00    +0.010 C 
ATOM     11  C   LIG    1        1.185   7.302  -0.229  0.00  0.00    +0.010 C 
ATOM     12  C   LIG    1        0.603   6.253  -1.191  0.00  0.00    +0.020 C 
ENDBRANCH   5   9
TORSDOF 1
ENDMDL
MODEL      739
REMARK  Name = ZINC000095611647
REMARK                            x       y       z     vdW  Elec       q    Type
REMARK                         _______ _______ _______ _____ _____    ______ ____
ROOT
ATOM      1  C   LIG    1       -2.644  -2.161   1.973  0.00  0.00    -0.060 A 
ATOM      2  C   LIG    1       -3.394  -1.001   1.778  0.00  0.00    +0.060 A 
ATOM      3  C   LIG    1       -4.048  -0.418   2.844  0.00  0.00    -0.020 A 
ATOM      4  C   LIG    1       -3.959  -0.982   4.107  0.00  0.00    +0.100 A 
ATOM      5  C   LIG    1       -3.216  -2.134   4.306  0.00  0.00    -0.010 A 
ATOM      6  F   LIG    1       -4.600  -0.406   5.147  0.00  0.00    -0.140 F 
ATOM      7  C   LIG    1       -2.563  -2.728   3.245  0.00  0.00    +0.050 A 
ENDROOT
BRANCH   1   9
ATOM      8  C   LIG    1       -1.353  -2.034  -0.081  0.00  0.00    -0.010 C 
ATOM      9  C   LIG    1       -1.942  -2.790   0.835  0.00  0.00    -0.010 C 
BRANCH   8  10
ATOM     10  C   LIG    1       -1.249  -0.545   0.125  0.00  0.00    +0.040 C 
BRANCH  10  12
ATOM     11  C   LIG    1        0.294   1.418   0.038  0.00  0.00    +0.010 C 
ATOM     12  C   LIG    1        0.207  -0.107  -0.047  0.00  0.00    -0.020 C 
ATOM     13  C   LIG    1        1.061  -0.730   1.059  0.00  0.00    +0.010 C 
ENDBRANCH  10  12
ENDBRANCH   8  10
ENDBRANCH   1   9
TORSDOF 3
ENDMDL
MODEL      740
REMARK  Name = ZINC000169827519
REMARK                            x       y       z     vdW  Elec       q    Type
REMARK                         _______ _______ _______ _____ _____    ______ ____
ROOT
ATOM      1  C   LIG    1       -0.019   1.526   0.010  0.00  0.00    +0.020 C 
ATOM      2  C   LIG    1        0.002  -0.004   0.002  0.00  0.00    -0.030 C 
ATOM      3  C   LIG    1        0.823  -0.525  -1.200  0.00  0.00    +0.020 C 
ATOM      4  C   LIG    1        1.510  -1.767  -0.587  0.00  0.00    +0.030 C 
ATOM      5  C   LIG    1        1.551  -1.489   0.898  0.00  0.00    -0.010 C 
ATOM      6  C   LIG    1       -1.425  -0.555  -0.045  0.00  0.00    +0.020 C 
ATOM      7  C   LIG    1        0.729  -0.527   1.219  0.00  0.00    -0.390 C 
ENDROOT
BRANCH   7   8
ATOM      8 SI   LIG    1        0.484   0.118   2.955  0.00  0.00    +1.050 Si
ATOM      9  C   LIG    1       -1.296  -0.111   3.457  0.00  0.00    -0.240 C 
ATOM     10  C   LIG    1        0.917   1.929   3.012  0.00  0.00    -0.240 C 
ATOM     11  C   LIG    1        1.585  -0.822   4.128  0.00  0.00    -0.240 C 
ENDBRANCH   7   8
TORSDOF 1
ENDMDL
MODEL      741
REMARK  Name = ZINC000095611788
REMARK                            x       y       z     vdW  Elec       q    Type
REMARK                         _______ _______ _______ _____ _____    ______ ____
ROOT
ATOM      1  C   LIG    1       -0.049   1.525  -0.068  0.00  0.00    +0.040 C 
ATOM      2  C   LIG    1       -0.020  -0.005  -0.055  0.00  0.00    -0.030 C 
ATOM      3  C   LIG    1        0.681  -0.538  -1.322  0.00  0.00    +0.040 C 
ATOM      4  C   LIG    1        2.145  -0.684  -0.855  0.00  0.00    -0.030 C 
ATOM      5  C   LIG    1        2.063  -0.895   0.642  0.00  0.00    -0.080 A 
ATOM      6  C   LIG    1        3.002  -1.388   1.532  0.00  0.00    +0.010 A 
ATOM      7  C   LIG    1        2.700  -1.492   2.876  0.00  0.00    +0.000 A 
ATOM      8  C   LIG    1        1.456  -1.102   3.335  0.00  0.00    +0.000 A 
ATOM      9  C   LIG    1        0.518  -0.608   2.449  0.00  0.00    +0.010 A 
ATOM     10  C   LIG    1        2.933   0.588  -1.172  0.00  0.00    +0.040 C 
ATOM     11  C   LIG    1        2.798  -1.894  -1.526  0.00  0.00    +0.040 C 
ATOM     12  C   LIG    1       -1.442  -0.561   0.041  0.00  0.00    +0.040 C 
ATOM     13  C   LIG    1        0.819  -0.504   1.102  0.00  0.00    -0.080 A 
ENDROOT
TORSDOF 0
ENDMDL
MODEL      742
REMARK  Name = ZINC000095611753
REMARK                            x       y       z     vdW  Elec       q    Type
REMARK                         _______ _______ _______ _____ _____    ______ ____
ROOT
ATOM      1  C   LIG    1       -2.848  -2.593   0.015  0.00  0.00    +0.040 C 
ENDROOT
BRANCH   1   2
ATOM      2  C   LIG    1       -2.828  -4.100   0.007  0.00  0.00    -0.050 C 
ATOM      3  C   LIG    1       -3.460  -4.769   0.939  0.00  0.00    -0.040 C 
BRANCH   3   4
ATOM      4  C   LIG    1       -3.440  -6.276   0.931  0.00  0.00    +0.000 C 
ATOM      5  C   LIG    1       -4.871  -6.804   0.816  0.00  0.00    +0.030 C 
ATOM      6  C   LIG    1       -2.811  -6.784   2.229  0.00  0.00    +0.030 C 
ENDBRANCH   3   4
ENDBRANCH   1   2
BRANCH   1   7
ATOM      7  C   LIG    1       -1.413  -2.063   0.004  0.00  0.00    +0.000 C 
BRANCH   7   8
ATOM      8  C   LIG    1       -1.433  -0.534   0.013  0.00  0.00    +0.000 C 
BRANCH   8  10
ATOM      9  C   LIG    1       -0.019   1.526   0.010  0.00  0.00    +0.000 C 
ATOM     10  C   LIG    1        0.002  -0.004   0.002  0.00  0.00    -0.010 C 
ENDBRANCH   8  10
ENDBRANCH   7   8
ENDBRANCH   1   7
TORSDOF 5
ENDMDL
MODEL      743
REMARK  Name = ZINC000169828466
REMARK                            x       y       z     vdW  Elec       q    Type
REMARK                         _______ _______ _______ _____ _____    ______ ____
ROOT
ATOM      1  C   LIG    1        0.913  -0.629  -1.498  0.00  0.00    -0.290 C 
ATOM      2  C   LIG    1        0.839  -2.157  -1.540  0.00  0.00    +0.020 C 
ATOM      3  C   LIG    1        0.148  -2.599  -2.831  0.00  0.00    -0.010 C 
ATOM      4  C   LIG    1       -1.267  -2.018  -2.877  0.00  0.00    +0.010 C 
ATOM      5  C   LIG    1       -1.192  -0.490  -2.835  0.00  0.00    +0.000 C 
ATOM      6  C   LIG    1        0.946  -2.094  -4.035  0.00  0.00    +0.010 C 
ATOM      7  C   LIG    1        1.021  -0.566  -3.993  0.00  0.00    +0.010 C 
ATOM      8  C   LIG    1        0.272  -0.053  -2.761  0.00  0.00    +0.000 C 
ENDROOT
BRANCH   1  10
ATOM      9  C   LIG    1       -0.453   1.785  -0.249  0.00  0.00    -0.240 C 
ATOM     10 SI   LIG    1        0.002  -0.004   0.002  0.00  0.00    +1.000 Si
ATOM     11  C   LIG    1       -1.546  -1.009   0.252  0.00  0.00    -0.230 C 
ATOM     12  C   LIG    1        1.094  -0.163   1.503  0.00  0.00    -0.240 C 
ENDBRANCH   1  10
TORSDOF 1
ENDMDL
MODEL      744
REMARK  Name = ZINC000169827608
REMARK                            x       y       z     vdW  Elec       q    Type
REMARK                         _______ _______ _______ _____ _____    ______ ____
ROOT
ATOM      1  C   LIG    1       -0.196   1.551   0.384  0.00  0.00    +0.020 C 
ATOM      2  C   LIG    1       -0.080   0.046   0.134  0.00  0.00    +0.030 C 
ATOM      3  C   LIG    1       -1.460  -0.600   0.278  0.00  0.00    +0.000 C 
ATOM      4  C   LIG    1       -1.285  -2.123   0.283  0.00  0.00    +0.000 C 
ATOM      5  C   LIG    1       -0.549  -2.522   1.564  0.00  0.00    +0.040 C 
ATOM      6  C   LIG    1        0.674  -1.670   1.744  0.00  0.00    -0.010 C 
ATOM      7  C   LIG    1        0.873  -0.552   1.127  0.00  0.00    -0.390 C 
ENDROOT
BRANCH   7   8
ATOM      8 SI   LIG    1        2.452   0.378   1.488  0.00  0.00    +1.030 Si
ATOM      9  C   LIG    1        2.128   1.671   2.790  0.00  0.00    -0.240 C 
ATOM     10  C   LIG    1        3.057   1.204  -0.069  0.00  0.00    -0.240 C 
ATOM     11  C   LIG    1        3.747  -0.811   2.103  0.00  0.00    -0.240 C 
ENDBRANCH   7   8
TORSDOF 1
ENDMDL
MODEL      745
REMARK  Name = ZINC000169828449
REMARK                            x       y       z     vdW  Elec       q    Type
REMARK                         _______ _______ _______ _____ _____    ______ ____
ROOT
ATOM      1  C   LIG    1        0.876  -0.607  -1.535  0.00  0.00    -0.400 C 
ATOM      2  C   LIG    1        0.159  -0.806  -2.598  0.00  0.00    -0.010 C 
ATOM      3  C   LIG    1        0.796  -1.277  -3.892  0.00  0.00    +0.020 C 
ATOM      4  C   LIG    1        1.501  -0.029  -4.485  0.00  0.00    +0.010 C 
ATOM      5  C   LIG    1        2.849   0.075  -3.746  0.00  0.00    +0.000 C 
ATOM      6  C   LIG    1        2.941  -1.161  -2.830  0.00  0.00    -0.020 C 
ATOM      7  C   LIG    1        1.967  -2.212  -3.486  0.00  0.00    +0.010 C 
ATOM      8  C   LIG    1        2.359  -0.819  -1.455  0.00  0.00    +0.070 C 
ENDROOT
BRANCH   1  10
ATOM      9  C   LIG    1       -0.023   1.859   0.012  0.00  0.00    -0.240 C 
ATOM     10 SI   LIG    1        0.002  -0.004   0.002  0.00  0.00    +1.040 Si
ATOM     11  C   LIG    1       -1.746  -0.649   0.015  0.00  0.00    -0.240 C 
ATOM     12  C   LIG    1        0.903  -0.621   1.511  0.00  0.00    -0.240 C 
ENDBRANCH   1  10
TORSDOF 1
ENDMDL
MODEL      746
REMARK  Name = ZINC000169827611
REMARK                            x       y       z     vdW  Elec       q    Type
REMARK                         _______ _______ _______ _____ _____    ______ ____
ROOT
ATOM      1  C   LIG    1       -0.169   0.982  -0.125  0.00  0.00    +0.020 C 
ATOM      2  C   LIG    1       -0.122  -0.523   0.148  0.00  0.00    +0.030 C 
ATOM      3  C   LIG    1        0.423  -1.246  -1.086  0.00  0.00    +0.000 C 
ATOM      4  C   LIG    1        0.707  -2.705  -0.708  0.00  0.00    +0.000 C 
ATOM      5  C   LIG    1        1.871  -2.729   0.286  0.00  0.00    +0.040 C 
ATOM      6  C   LIG    1        1.625  -1.748   1.394  0.00  0.00    -0.010 C 
ATOM      7  C   LIG    1        0.764  -0.786   1.331  0.00  0.00    -0.390 C 
ENDROOT
BRANCH   7   8
ATOM      8 SI   LIG    1        0.606   0.347   2.807  0.00  0.00    +1.030 Si
ATOM      9  C   LIG    1        1.179  -0.546   4.339  0.00  0.00    -0.240 C 
ATOM     10  C   LIG    1       -1.175   0.854   3.013  0.00  0.00    -0.240 C 
ATOM     11  C   LIG    1        1.657   1.863   2.542  0.00  0.00    -0.240 C 
ENDBRANCH   7   8
TORSDOF 1
ENDMDL
MODEL      747
REMARK  Name = ZINC000095803229
REMARK                            x       y       z     vdW  Elec       q    Type
REMARK                         _______ _______ _______ _____ _____    ______ ____
ROOT
ATOM      1  C   LIG    1       -0.018   1.503   0.010  0.00  0.00    +0.090 C 
ATOM      2  C   LIG    1        0.002  -0.004   0.002  0.00  0.00    -0.080 A 
ATOM      3  C   LIG    1        0.006  -0.689  -1.199  0.00  0.00    +0.000 A 
ATOM      4  C   LIG    1        0.025  -2.071  -1.206  0.00  0.00    +0.010 A 
ATOM      5  C   LIG    1        0.040  -2.768  -0.013  0.00  0.00    +0.000 A 
ATOM      6  C   LIG    1        0.037  -2.084   1.188  0.00  0.00    -0.070 A 
ATOM      7  C   LIG    1        0.023  -0.702   1.196  0.00  0.00    +0.000 A 
ENDROOT
BRANCH   6   8
ATOM      8  C   LIG    1        0.054  -2.844   2.489  0.00  0.00    +0.120 C 
BRANCH   8   9
ATOM      9  C   LIG    1        1.480  -3.079   2.915  0.00  0.00    -0.080 A 
ATOM     10  C   LIG    1        2.146  -4.218   2.502  0.00  0.00    +0.010 A 
ATOM     11  C   LIG    1        3.454  -4.434   2.893  0.00  0.00    +0.000 A 
ATOM     12  C   LIG    1        4.096  -3.510   3.697  0.00  0.00    +0.000 A 
ATOM     13  C   LIG    1        3.431  -2.372   4.110  0.00  0.00    +0.000 A 
ATOM     14  C   LIG    1        2.124  -2.154   3.715  0.00  0.00    +0.010 A 
ENDBRANCH   8   9
ENDBRANCH   6   8
TORSDOF 2
ENDMDL
MODEL      748
REMARK  Name = ZINC000169827698
REMARK                            x       y       z     vdW  Elec       q    Type
REMARK                         _______ _______ _______ _____ _____    ______ ____
ROOT
ATOM      1  C   LIG    1        0.876  -0.607  -1.535  0.00  0.00    -0.400 C 
ATOM      2  C   LIG    1        0.156  -0.805  -2.593  0.00  0.00    -0.010 C 
ATOM      3  C   LIG    1        0.729  -1.199  -3.923  0.00  0.00    +0.040 C 
ATOM      4  C   LIG    1        1.652  -2.413  -3.771  0.00  0.00    +0.000 C 
ATOM      5  C   LIG    1        3.076  -1.898  -3.567  0.00  0.00    +0.000 C 
ATOM      6  C   LIG    1        3.031  -0.573  -2.800  0.00  0.00    +0.000 C 
ATOM      7  C   LIG    1        2.359  -0.817  -1.449  0.00  0.00    +0.050 C 
ENDROOT
BRANCH   1   9
ATOM      8  C   LIG    1       -0.023   1.859   0.012  0.00  0.00    -0.240 C 
ATOM      9 SI   LIG    1        0.002  -0.004   0.002  0.00  0.00    +1.040 Si
ATOM     10  C   LIG    1       -1.746  -0.649   0.015  0.00  0.00    -0.240 C 
ATOM     11  C   LIG    1        0.903  -0.621   1.511  0.00  0.00    -0.240 C 
ENDBRANCH   1   9
TORSDOF 1
ENDMDL
MODEL      749
REMARK  Name = ZINC000095851762
REMARK                            x       y       z     vdW  Elec       q    Type
REMARK                         _______ _______ _______ _____ _____    ______ ____
ROOT
ATOM      1  C   LIG    1       -1.416  -2.035  -0.119  0.00  0.00    -0.070 A 
ATOM      2  C   LIG    1       -1.450  -2.619  -1.372  0.00  0.00    +0.020 A 
ATOM      3  C   LIG    1       -1.434  -3.995  -1.494  0.00  0.00    +0.020 A 
ATOM      4  C   LIG    1       -1.384  -4.789  -0.361  0.00  0.00    -0.040 A 
ATOM      5  C   LIG    1       -1.350  -4.204   0.892  0.00  0.00    +0.020 A 
ATOM      6 CL   LIG    1       -1.363  -6.518  -0.514  0.00  0.00    -0.070 Cl
ATOM      7  C   LIG    1       -1.361  -2.827   1.012  0.00  0.00    +0.030 A 
ENDROOT
BRANCH   1   8
ATOM      8  C   LIG    1       -1.433  -0.534   0.013  0.00  0.00    +0.080 C 
BRANCH   8  10
ATOM      9  C   LIG    1       -0.019   1.526   0.010  0.00  0.00    +0.030 C 
ATOM     10  C   LIG    1        0.002  -0.004   0.002  0.00  0.00    -0.020 C 
ATOM     11  C   LIG    1        0.742  -0.511   1.242  0.00  0.00    +0.010 C 
ENDBRANCH   8  10
ENDBRANCH   1   8
TORSDOF 2
ENDMDL
MODEL      750
REMARK  Name = ZINC000100231532
REMARK                            x       y       z     vdW  Elec       q    Type
REMARK                         _______ _______ _______ _____ _____    ______ ____
ROOT
ATOM      1  C   LIG    1       -0.019   1.526   0.010  0.00  0.00    +0.040 C 
ATOM      2  C   LIG    1        0.002  -0.004   0.002  0.00  0.00    -0.060 C 
ATOM      3  C   LIG    1       -1.433  -0.534   0.013  0.00  0.00    +0.030 C 
ATOM      4  C   LIG    1       -1.413  -2.063   0.004  0.00  0.00    -0.010 C 
ATOM      5  C   LIG    1       -0.673  -2.570   1.244  0.00  0.00    +0.030 C 
ATOM      6  C   LIG    1        0.763  -2.041   1.233  0.00  0.00    +0.040 C 
ATOM      7  C   LIG    1        1.479  -2.534  -0.026  0.00  0.00    +0.040 C 
ATOM      8  C   LIG    1        0.739  -2.027  -1.265  0.00  0.00    -0.060 C 
ATOM      9  C   LIG    1        1.455  -2.521  -2.524  0.00  0.00    +0.040 C 
ATOM     10 CL   LIG    1        1.635  -2.638   2.694  0.00  0.00    -0.190 Cl
ATOM     11  C   LIG    1       -0.696  -2.557  -1.254  0.00  0.00    +0.030 C 
ATOM     12  C   LIG    1        0.718  -0.497  -1.257  0.00  0.00    +0.040 C 
ATOM     13  C   LIG    1        0.742  -0.511   1.242  0.00  0.00    +0.040 C 
ENDROOT
TORSDOF 0
ENDMDL
MODEL      751
REMARK  Name = ZINC000001459899
REMARK                            x       y       z     vdW  Elec       q    Type
REMARK                         _______ _______ _______ _____ _____    ______ ____
ROOT
ATOM      1  C   LIG    1       -0.018   1.503   0.010  0.00  0.00    +0.150 C 
ATOM      2  C   LIG    1        0.002  -0.004   0.002  0.00  0.00    +0.060 A 
ATOM      3  C   LIG    1        0.007  -0.772  -1.101  0.00  0.00    -0.160 A 
ATOM      4  C   LIG    1        0.029  -2.165  -0.650  0.00  0.00    -0.110 A 
ATOM      5  C   LIG    1        0.036  -2.118   0.747  0.00  0.00    +0.090 A 
ATOM      6  C   LIG    1        0.056  -3.329   1.476  0.00  0.00    -0.030 A 
ATOM      7  C   LIG    1        0.063  -3.333   2.878  0.00  0.00    +0.010 A 
ATOM      8  C   LIG    1        0.082  -4.518   3.550  0.00  0.00    +0.000 A 
ATOM      9  C   LIG    1        0.097  -5.729   2.864  0.00  0.00    +0.000 A 
ATOM     10  C   LIG    1        0.091  -5.761   1.501  0.00  0.00    +0.030 A 
ATOM     11  C   LIG    1        0.070  -4.559   0.776  0.00  0.00    -0.030 A 
ATOM     12  C   LIG    1        0.063  -4.566  -0.635  0.00  0.00    -0.010 A 
ATOM     13  C   LIG    1        0.043  -3.401  -1.325  0.00  0.00    +0.060 A 
ATOM     14  C   LIG    1       -0.006  -0.291  -2.529  0.00  0.00    +0.100 C 
ATOM     15  N   LIG    1        0.024  -0.797   1.115  0.00  0.00    -0.570 N 
ATOM     16  H   LIG    1        0.025  -0.473   2.029  0.00  0.00    +0.410 HD
ENDROOT
TORSDOF 0
ENDMDL
MODEL      752
REMARK  Name = ZINC000001038917
REMARK                            x       y       z     vdW  Elec       q    Type
REMARK                         _______ _______ _______ _____ _____    ______ ____
ROOT
ATOM      1  C   LIG    1       -0.019   1.526   0.010  0.00  0.00    +0.050 C 
ATOM      2  C   LIG    1        0.002  -0.004   0.002  0.00  0.00    +0.010 C 
ATOM      3  C   LIG    1        0.777  -0.507  -1.191  0.00  0.00    -0.080 A 
ATOM      4  C   LIG    1        0.590  -0.353  -2.548  0.00  0.00    +0.020 A 
ATOM      5  C   LIG    1        1.473  -0.936  -3.440  0.00  0.00    +0.020 A 
ATOM      6  C   LIG    1        2.546  -1.673  -2.972  0.00  0.00    +0.010 A 
ATOM      7  C   LIG    1        2.742  -1.831  -1.615  0.00  0.00    +0.020 A 
ATOM      8  C   LIG    1        1.855  -1.246  -0.710  0.00  0.00    -0.060 A 
ATOM      9  C   LIG    1        1.826  -1.254   0.773  0.00  0.00    -0.060 A 
ATOM     10  C   LIG    1        2.678  -1.847   1.706  0.00  0.00    +0.020 A 
ATOM     11  C   LIG    1        2.429  -1.702   3.056  0.00  0.00    +0.010 A 
ATOM     12  C   LIG    1        1.338  -0.971   3.489  0.00  0.00    +0.020 A 
ATOM     13  C   LIG    1        0.489  -0.380   2.570  0.00  0.00    +0.020 A 
ATOM     14  C   LIG    1       -1.427  -0.549  -0.029  0.00  0.00    +0.050 C 
ATOM     15  C   LIG    1        0.729  -0.520   1.219  0.00  0.00    -0.080 A 
ENDROOT
TORSDOF 0
ENDMDL
MODEL      753
REMARK  Name = ZINC000098089001
REMARK                            x       y       z     vdW  Elec       q    Type
REMARK                         _______ _______ _______ _____ _____    ______ ____
ROOT
ATOM      1  C   LIG    1        0.002  -0.004   0.002  0.00  0.00    +0.250 A 
ATOM      2  C   LIG    1       -1.195  -0.715   0.004  0.00  0.00    -0.080 A 
ATOM      3  C   LIG    1       -1.180  -2.091  -0.004  0.00  0.00    +0.140 A 
ATOM      4  C   LIG    1        0.040  -2.776  -0.014  0.00  0.00    -0.020 A 
ATOM      5  C   LIG    1        1.241  -2.058  -0.016  0.00  0.00    +0.100 A 
ATOM      6  C   LIG    1        1.218  -0.682  -0.013  0.00  0.00    -0.080 A 
ENDROOT
BRANCH   1   7
ATOM      7  N   LIG    1       -0.017   1.388   0.010  0.00  0.00    -0.860 N 
ATOM      8  H   LIG    1       -0.863   1.862   0.016  0.00  0.00    +0.400 HD
ATOM      9  H   LIG    1        0.817   1.885   0.004  0.00  0.00    +0.400 HD
ENDBRANCH   1   7
BRANCH   4  10
ATOM     10  N   LIG    1        0.058  -4.140  -0.023  0.00  0.00    -0.200 NA
ATOM     11  N   LIG    1        1.184  -4.770  -0.032  0.00  0.00    -0.240 NA
BRANCH  11  12
ATOM     12  C   LIG    1        1.202  -6.137  -0.040  0.00  0.00    +0.060 A 
ATOM     13  C   LIG    1        0.004  -6.855  -0.045  0.00  0.00    +0.020 A 
ATOM     14  C   LIG    1        0.030  -8.234  -0.053  0.00  0.00    +0.010 A 
ATOM     15  C   LIG    1        1.240  -8.906  -0.057  0.00  0.00    +0.030 A 
ATOM     16  C   LIG    1        2.431  -8.201  -0.053  0.00  0.00    +0.010 A 
ATOM     17  C   LIG    1        2.420  -6.822  -0.050  0.00  0.00    +0.060 A 
ENDBRANCH  11  12
ENDBRANCH   4  10
TORSDOF 3
ENDMDL
MODEL      754
REMARK  Name = ZINC000007023283
REMARK                            x       y       z     vdW  Elec       q    Type
REMARK                         _______ _______ _______ _____ _____    ______ ____
ROOT
ATOM      1  C   LIG    1        0.387   1.440   0.270  0.00  0.00    +0.090 C 
ATOM      2  C   LIG    1        0.310  -0.064   0.215  0.00  0.00    -0.160 A 
ATOM      3  C   LIG    1        0.321  -0.713  -1.004  0.00  0.00    +0.010 A 
ATOM      4  C   LIG    1        0.251  -2.095  -1.055  0.00  0.00    -0.030 A 
ATOM      5  C   LIG    1        0.169  -2.829   0.114  0.00  0.00    +0.060 A 
ATOM      6  C   LIG    1        0.158  -2.185   1.336  0.00  0.00    -0.140 A 
ATOM      7 CL   LIG    1        0.424   0.204  -2.475  0.00  0.00    -0.070 Cl
ATOM      8  C   LIG    1        0.234  -0.799   1.391  0.00  0.00    +0.230 A 
ENDROOT
BRANCH   6   9
ATOM      9  C   LIG    1        0.069  -2.986   2.610  0.00  0.00    -0.020 C 
ATOM     10  C   LIG    1       -1.203  -2.601   3.367  0.00  0.00    +0.030 C 
ATOM     11  C   LIG    1        1.291  -2.693   3.483  0.00  0.00    +0.030 C 
ATOM     12  C   LIG    1        0.029  -4.478   2.272  0.00  0.00    +0.040 C 
ENDBRANCH   6   9
BRANCH   8  13
ATOM     13  N   LIG    1        0.222  -0.146   2.626  0.00  0.00    -0.880 N 
ATOM     14  H   LIG    1        0.347   0.815   2.667  0.00  0.00    +0.400 HD
ATOM     15  H   LIG    1        0.090  -0.653   3.442  0.00  0.00    +0.400 HD
ENDBRANCH   8  13
TORSDOF 2
ENDMDL
MODEL      755
REMARK  Name = ZINC000071785763
REMARK                            x       y       z     vdW  Elec       q    Type
REMARK                         _______ _______ _______ _____ _____    ______ ____
ROOT
ATOM      1  C   LIG    1       -0.018   1.503   0.010  0.00  0.00    +0.090 C 
ATOM      2  C   LIG    1        0.002  -0.004   0.002  0.00  0.00    -0.090 C 
ATOM      3  C   LIG    1        0.006  -0.663  -1.144  0.00  0.00    -0.030 C 
ATOM      4  C   LIG    1        0.025  -2.122  -1.237  0.00  0.00    -0.010 C 
ATOM      5  C   LIG    1        0.050  -2.912  -0.174  0.00  0.00    -0.010 C 
ATOM      6  C   LIG    1        0.058  -2.296   1.210  0.00  0.00    +0.000 C 
ATOM      7  C   LIG    1        1.494  -2.176   1.712  0.00  0.00    -0.030 C 
ATOM      8  C   LIG    1        1.444  -0.860   1.827  0.00  0.00    -0.030 C 
ATOM      9  C   LIG    1       -0.747  -3.120   2.189  0.00  0.00    +0.040 C 
ATOM     10  C   LIG    1       -1.903  -2.346   2.801  0.00  0.00    +0.010 C 
ATOM     11  C   LIG    1       -1.317  -1.076   3.438  0.00  0.00    +0.020 C 
ATOM     12  C   LIG    1       -0.920  -0.142   2.303  0.00  0.00    +0.030 C 
ATOM     13  C   LIG    1        0.025  -0.778   1.314  0.00  0.00    +0.010 C 
ENDROOT
TORSDOF 0
ENDMDL
MODEL      756
REMARK  Name = ZINC000005179825
REMARK                            x       y       z     vdW  Elec       q    Type
REMARK                         _______ _______ _______ _____ _____    ______ ____
ROOT
ATOM      1  C   LIG    1        0.009   1.487   0.010  0.00  0.00    +0.080 C 
ATOM      2  C   LIG    1        0.019  -0.019   0.009  0.00  0.00    -0.150 C 
ATOM      3  C   LIG    1        0.027  -0.625  -1.135  0.00  0.00    -0.030 C 
ATOM      4  C   LIG    1        0.027  -2.117  -1.297  0.00  0.00    +0.060 C 
ATOM      5  C   LIG    1        0.441  -2.789   0.014  0.00  0.00    +0.030 C 
ATOM      6  C   LIG    1       -0.392  -2.187   1.152  0.00  0.00    +0.030 C 
ATOM      7  C   LIG    1        0.027  -0.725   1.333  0.00  0.00    +0.210 C 
ENDROOT
BRANCH   7   8
ATOM      8  O   LIG    1       -0.893  -0.074   2.212  0.00  0.00    -0.300 OA
BRANCH   8   9
ATOM      9  C   LIG    1       -0.386   0.872   3.046  0.00  0.00    +0.130 A 
ATOM     10  C   LIG    1       -1.196   1.456   4.008  0.00  0.00    -0.030 A 
ATOM     11  C   LIG    1       -0.678   2.417   4.855  0.00  0.00    +0.050 A 
ATOM     12  C   LIG    1        0.646   2.798   4.743  0.00  0.00    -0.040 A 
ATOM     13  C   LIG    1        1.456   2.218   3.783  0.00  0.00    +0.040 A 
ATOM     14  C   LIG    1        0.944   1.252   2.939  0.00  0.00    -0.080 A 
ENDBRANCH   8   9
ENDBRANCH   7   8
TORSDOF 2
ENDMDL
MODEL      757
REMARK  Name = ZINC000001711583
REMARK                            x       y       z     vdW  Elec       q    Type
REMARK                         _______ _______ _______ _____ _____    ______ ____
ROOT
ATOM      1  C   LIG    1       -0.073   1.041  -0.232  0.00  0.00    +0.070 C 
ATOM      2  C   LIG    1       -0.084  -0.435   0.073  0.00  0.00    -0.150 C 
ATOM      3  C   LIG    1       -0.140  -1.260  -0.922  0.00  0.00    -0.030 C 
ATOM      4  C   LIG    1       -0.149  -2.754  -0.777  0.00  0.00    +0.060 C 
ATOM      5  C   LIG    1       -0.508  -3.142   0.659  0.00  0.00    +0.030 C 
ATOM      6  C   LIG    1        0.374  -2.329   1.616  0.00  0.00    +0.040 C 
ATOM      7  C   LIG    1       -0.024  -0.857   1.512  0.00  0.00    +0.210 C 
ENDROOT
BRANCH   7   8
ATOM      8  O   LIG    1        0.938  -0.057   2.204  0.00  0.00    -0.300 OA
BRANCH   8   9
ATOM      9  C   LIG    1        0.467   1.018   2.890  0.00  0.00    +0.130 A 
ATOM     10  C   LIG    1       -0.874   1.364   2.805  0.00  0.00    -0.080 A 
ATOM     11  C   LIG    1       -1.350   2.456   3.504  0.00  0.00    +0.040 A 
ATOM     12  C   LIG    1       -0.491   3.204   4.288  0.00  0.00    -0.040 A 
ATOM     13  C   LIG    1        0.846   2.862   4.375  0.00  0.00    +0.050 A 
ATOM     14  C   LIG    1        1.325   1.767   3.682  0.00  0.00    -0.030 A 
ENDBRANCH   8   9
ENDBRANCH   7   8
TORSDOF 2
ENDMDL
MODEL      758
REMARK  Name = ZINC000001850503
REMARK                            x       y       z     vdW  Elec       q    Type
REMARK                         _______ _______ _______ _____ _____    ______ ____
ROOT
ATOM      1  C   LIG    1       -0.200   1.534   0.069  0.00  0.00    +0.070 C 
ATOM      2  C   LIG    1       -0.089   0.031   0.043  0.00  0.00    -0.120 C 
ATOM      3  C   LIG    1       -0.010  -0.554  -1.109  0.00  0.00    -0.040 C 
ATOM      4  C   LIG    1        0.094  -2.040  -1.292  0.00  0.00    +0.060 C 
ATOM      5  C   LIG    1        0.521  -2.706   0.017  0.00  0.00    +0.030 C 
ATOM      6  C   LIG    1       -0.379  -2.183   1.144  0.00  0.00    -0.060 C 
ATOM      7  C   LIG    1       -0.092  -2.955   2.433  0.00  0.00    +0.030 C 
ATOM      8  C   LIG    1       -1.848  -2.359   0.754  0.00  0.00    +0.030 C 
ATOM      9  C   LIG    1       -0.071  -0.698   1.355  0.00  0.00    +0.160 C 
ATOM     10  C   LIG    1        1.318  -0.556   2.013  0.00  0.00    +0.020 C 
ATOM     11  C   LIG    1        1.087   0.601   3.022  0.00  0.00    +0.010 C 
ATOM     12  C   LIG    1       -0.383   0.340   3.438  0.00  0.00    +0.140 C 
ATOM     13  C   LIG    1       -1.033   1.634   3.932  0.00  0.00    +0.040 C 
ATOM     14  O   LIG    1       -1.034  -0.123   2.244  0.00  0.00    -0.360 OA
ENDROOT
TORSDOF 0
ENDMDL
MODEL      759
REMARK  Name = ZINC000114543144
REMARK                            x       y       z     vdW  Elec       q    Type
REMARK                         _______ _______ _______ _____ _____    ______ ____
ROOT
ATOM      1  C   LIG    1       -0.018   1.503   0.010  0.00  0.00    +0.120 C 
ATOM      2  C   LIG    1        0.002  -0.004   0.002  0.00  0.00    -0.060 A 
ATOM      3  C   LIG    1        0.006  -0.689  -1.199  0.00  0.00    +0.030 A 
ATOM      4  C   LIG    1        0.025  -2.072  -1.206  0.00  0.00    -0.020 A 
ATOM      5  C   LIG    1        0.040  -2.770  -0.012  0.00  0.00    +0.030 A 
ATOM      6  C   LIG    1        0.037  -2.086   1.189  0.00  0.00    -0.060 A 
ATOM      7  C   LIG    1        0.053  -2.846   2.490  0.00  0.00    +0.120 C 
ATOM      8 CL   LIG    1        0.029  -2.932  -2.714  0.00  0.00    -0.060 Cl
ATOM      9  C   LIG    1        0.023  -0.702   1.196  0.00  0.00    -0.040 A 
ATOM     10 CL   LIG    1        0.019   0.158   2.704  0.00  0.00    -0.050 Cl
ENDROOT
TORSDOF 0
ENDMDL
MODEL      760
REMARK  Name = ZINC000104293690
REMARK                            x       y       z     vdW  Elec       q    Type
REMARK                         _______ _______ _______ _____ _____    ______ ____
ROOT
ATOM      1  C   LIG    1       -0.018   1.503   0.010  0.00  0.00    +0.080 C 
ATOM      2  C   LIG    1        0.002  -0.004   0.002  0.00  0.00    -0.140 C 
ATOM      3  C   LIG    1        0.007  -0.738  -1.079  0.00  0.00    -0.040 C 
ATOM      4  C   LIG    1        0.026  -2.215  -0.735  0.00  0.00    +0.000 C 
ATOM      5  C   LIG    1        1.155  -2.887  -1.480  0.00  0.00    -0.030 C 
ATOM      6  C   LIG    1        2.230  -2.943  -0.738  0.00  0.00    -0.050 C 
ATOM      7  C   LIG    1        1.985  -2.320   0.620  0.00  0.00    +0.060 C 
ATOM      8  C   LIG    1       -1.311  -2.836  -1.055  0.00  0.00    +0.020 C 
ATOM      9  C   LIG    1       -1.583  -4.103  -0.255  0.00  0.00    +0.000 C 
ATOM     10  C   LIG    1       -1.520  -3.753   1.237  0.00  0.00    +0.010 C 
ATOM     11  C   LIG    1       -0.082  -3.380   1.575  0.00  0.00    +0.020 C 
ATOM     12  C   LIG    1        0.446  -2.254   0.739  0.00  0.00    -0.050 C 
ATOM     13  C   LIG    1        0.026  -0.867   1.245  0.00  0.00    +0.070 C 
ENDROOT
TORSDOF 0
ENDMDL
MODEL      761
REMARK  Name = ZINC000104293693
REMARK                            x       y       z     vdW  Elec       q    Type
REMARK                         _______ _______ _______ _____ _____    ______ ____
ROOT
ATOM      1  C   LIG    1       -0.018   1.503   0.010  0.00  0.00    +0.080 C 
ATOM      2  C   LIG    1        0.002  -0.004   0.002  0.00  0.00    -0.130 C 
ATOM      3  C   LIG    1        0.007  -0.739  -1.080  0.00  0.00    -0.040 C 
ATOM      4  C   LIG    1        0.025  -2.207  -0.728  0.00  0.00    +0.000 C 
ATOM      5  C   LIG    1       -1.397  -2.736  -0.706  0.00  0.00    -0.030 C 
ATOM      6  C   LIG    1       -1.650  -3.358   0.414  0.00  0.00    -0.050 C 
ATOM      7  C   LIG    1       -0.443  -3.346   1.327  0.00  0.00    +0.060 C 
ATOM      8  C   LIG    1        0.860  -3.011  -1.694  0.00  0.00    +0.020 C 
ATOM      9  C   LIG    1        2.349  -2.953  -1.381  0.00  0.00    +0.000 C 
ATOM     10  C   LIG    1        2.563  -3.477   0.044  0.00  0.00    +0.000 C 
ATOM     11  C   LIG    1        1.923  -2.489   1.012  0.00  0.00    +0.020 C 
ATOM     12  C   LIG    1        0.468  -2.257   0.740  0.00  0.00    -0.050 C 
ATOM     13  C   LIG    1        0.026  -0.868   1.244  0.00  0.00    +0.070 C 
ENDROOT
TORSDOF 0
ENDMDL
MODEL      762
REMARK  Name = ZINC000003848005
REMARK                            x       y       z     vdW  Elec       q    Type
REMARK                         _______ _______ _______ _____ _____    ______ ____
ROOT
ATOM      1  C   LIG    1       -0.018   1.503   0.010  0.00  0.00    +0.100 C 
ATOM      2  C   LIG    1        0.002  -0.004   0.002  0.00  0.00    -0.060 C 
ATOM      3  C   LIG    1       -1.136  -0.702   0.004  0.00  0.00    -0.090 C 
ATOM      4  C   LIG    1       -1.070  -2.209   0.000  0.00  0.00    +0.260 C 
ATOM      5  O   LIG    1        0.107  -2.634  -0.690  0.00  0.00    -0.310 OA
ATOM      6  C   LIG    1        1.274  -2.034  -0.356  0.00  0.00    +0.090 C 
ATOM      7  C   LIG    1        2.562  -2.817  -0.374  0.00  0.00    +0.140 C 
ATOM      8  C   LIG    1        1.278  -0.740  -0.014  0.00  0.00    -0.110 C 
ENDROOT
BRANCH   4   9
ATOM      9  C   LIG    1       -2.287  -2.764  -0.694  0.00  0.00    -0.080 A 
ATOM     10  C   LIG    1       -2.296  -2.899  -2.070  0.00  0.00    +0.040 A 
ATOM     11  C   LIG    1       -3.413  -3.407  -2.707  0.00  0.00    +0.000 A 
ATOM     12  C   LIG    1       -4.520  -3.781  -1.968  0.00  0.00    +0.000 A 
ATOM     13  C   LIG    1       -4.510  -3.647  -0.593  0.00  0.00    +0.010 A 
ATOM     14  C   LIG    1       -3.392  -3.143   0.045  0.00  0.00    +0.010 A 
ENDBRANCH   4   9
TORSDOF 1
ENDMDL
MODEL      763
REMARK  Name = ZINC000001606254
REMARK                            x       y       z     vdW  Elec       q    Type
REMARK                         _______ _______ _______ _____ _____    ______ ____
ROOT
ATOM      1  C   LIG    1        0.707  -0.490  -1.238  0.00  0.00    -0.090 A 
ATOM      2  C   LIG    1       -0.011  -0.719  -2.397  0.00  0.00    +0.000 A 
ATOM      3  C   LIG    1        0.636  -1.164  -3.534  0.00  0.00    +0.010 A 
ATOM      4  C   LIG    1        2.002  -1.381  -3.513  0.00  0.00    -0.070 A 
ATOM      5  C   LIG    1        2.720  -1.151  -2.354  0.00  0.00    +0.010 A 
ATOM      6  C   LIG    1        2.073  -0.702  -1.218  0.00  0.00    +0.000 A 
ENDROOT
BRANCH   4   7
ATOM      7  C   LIG    1        2.707  -1.868  -4.752  0.00  0.00    -0.030 C 
ATOM      8  C   LIG    1        2.124  -3.218  -5.174  0.00  0.00    +0.040 C 
ATOM      9  C   LIG    1        4.201  -2.025  -4.461  0.00  0.00    +0.030 C 
ATOM     10  C   LIG    1        2.511  -0.854  -5.881  0.00  0.00    +0.040 C 
ENDBRANCH   4   7
BRANCH   1  12
ATOM     11  C   LIG    1       -0.019   1.526   0.010  0.00  0.00    +0.030 C 
ATOM     12  C   LIG    1        0.002  -0.004   0.002  0.00  0.00    +0.050 C 
ENDBRANCH   1  12
TORSDOF 2
ENDMDL
MODEL      764
REMARK  Name = ZINC000072099276
REMARK                            x       y       z     vdW  Elec       q    Type
REMARK                         _______ _______ _______ _____ _____    ______ ____
ROOT
ATOM      1  C   LIG    1        0.389   1.393   0.018  0.00  0.00    +0.090 C 
ATOM      2  C   LIG    1        0.465  -0.111   0.037  0.00  0.00    -0.080 A 
ATOM      3  C   LIG    1        0.564  -0.820  -1.149  0.00  0.00    -0.010 A 
ATOM      4  C   LIG    1        0.636  -2.190  -1.177  0.00  0.00    -0.070 A 
ATOM      5  C   LIG    1        0.612  -2.927   0.015  0.00  0.00    -0.030 A 
ATOM      6  C   LIG    1        0.680  -4.322   0.132  0.00  0.00    -0.070 A 
ATOM      7  C   LIG    1        0.645  -4.919   1.367  0.00  0.00    -0.010 A 
ATOM      8  C   LIG    1        0.542  -4.185   2.539  0.00  0.00    +0.010 A 
ATOM      9  C   LIG    1        0.475  -2.832   2.479  0.00  0.00    +0.010 A 
ATOM     10  C   LIG    1        0.795  -5.287  -1.022  0.00  0.00    +0.090 C 
ATOM     11  C   LIG    1        0.509  -2.182   1.232  0.00  0.00    -0.050 A 
ATOM     12  C   LIG    1        0.738  -2.780  -2.561  0.00  0.00    +0.090 C 
ATOM     13  C   LIG    1        0.437  -0.778   1.218  0.00  0.00    +0.010 A 
ENDROOT
TORSDOF 0
ENDMDL
MODEL      765
REMARK  Name = ZINC000038068905
REMARK                            x       y       z     vdW  Elec       q    Type
REMARK                         _______ _______ _______ _____ _____    ______ ____
ROOT
ATOM      1  C   LIG    1        0.029  -2.818  -2.491  0.00  0.00    +0.000 A 
ATOM      2  C   LIG    1        0.020  -2.121  -3.697  0.00  0.00    -0.050 A 
ATOM      3  C   LIG    1        0.024  -2.810  -4.894  0.00  0.00    +0.050 A 
ATOM      4  C   LIG    1        0.037  -4.191  -4.901  0.00  0.00    -0.080 A 
ATOM      5  C   LIG    1        0.046  -4.896  -3.702  0.00  0.00    +0.220 A 
ATOM      6  C   LIG    1        0.048  -4.211  -2.496  0.00  0.00    -0.070 A 
ENDROOT
BRANCH   1  10
ATOM      7  C   LIG    1       -0.018   1.503   0.010  0.00  0.00    +0.090 C 
ATOM      8  C   LIG    1        0.002  -0.004   0.002  0.00  0.00    -0.080 A 
ATOM      9  C   LIG    1        0.006  -0.686  -1.198  0.00  0.00    +0.020 A 
ATOM     10  C   LIG    1        0.025  -2.079  -1.204  0.00  0.00    -0.040 A 
ATOM     11  C   LIG    1        0.040  -2.776   0.003  0.00  0.00    +0.000 A 
ATOM     12  C   LIG    1        0.036  -2.084   1.196  0.00  0.00    -0.080 A 
ATOM     13  C   LIG    1        0.053  -2.836   2.502  0.00  0.00    +0.090 C 
ATOM     14  C   LIG    1        0.023  -0.701   1.197  0.00  0.00    +0.000 A 
ENDBRANCH   1  10
BRANCH   5  15
ATOM     15  N   LIG    1        0.060  -6.292  -3.713  0.00  0.00    -0.880 N 
ATOM     16  H   LIG    1        0.066  -6.784  -2.876  0.00  0.00    +0.400 HD
ATOM     17  H   LIG    1        0.063  -6.771  -4.556  0.00  0.00    +0.400 HD
ENDBRANCH   5  15
TORSDOF 2
ENDMDL
MODEL      766
REMARK  Name = ZINC000001038919
REMARK                            x       y       z     vdW  Elec       q    Type
REMARK                         _______ _______ _______ _____ _____    ______ ____
ROOT
ATOM      1  C   LIG    1       -1.412  -0.526   0.013  0.00  0.00    -0.070 A 
ATOM      2  C   LIG    1       -2.050  -0.766   1.216  0.00  0.00    +0.010 A 
ATOM      3  C   LIG    1       -3.345  -1.243   1.233  0.00  0.00    +0.030 A 
ATOM      4  C   LIG    1       -4.014  -1.485   0.033  0.00  0.00    -0.060 A 
ATOM      5  C   LIG    1       -3.363  -1.240  -1.174  0.00  0.00    -0.090 A 
ATOM      6  C   LIG    1       -4.321  -1.589  -2.286  0.00  0.00    +0.160 C 
ATOM      7  C   LIG    1       -5.588  -2.058  -1.614  0.00  0.00    -0.090 A 
ATOM      8  C   LIG    1       -6.793  -2.501  -2.117  0.00  0.00    +0.030 A 
ATOM      9  C   LIG    1       -7.807  -2.878  -1.253  0.00  0.00    +0.020 A 
ATOM     10  C   LIG    1       -7.613  -2.812   0.114  0.00  0.00    +0.010 A 
ATOM     11  C   LIG    1       -6.410  -2.370   0.626  0.00  0.00    +0.020 A 
ATOM     12  C   LIG    1       -5.383  -1.989  -0.239  0.00  0.00    -0.060 A 
ATOM     13  C   LIG    1       -2.071  -0.758  -1.181  0.00  0.00    +0.020 A 
ENDROOT
BRANCH   1  15
ATOM     14  C   LIG    1       -0.019   1.526   0.010  0.00  0.00    +0.030 C 
ATOM     15  C   LIG    1        0.002  -0.004   0.002  0.00  0.00    +0.050 C 
ENDBRANCH   1  15
TORSDOF 1
ENDMDL
MODEL      767
REMARK  Name = ZINC000002575232
REMARK                            x       y       z     vdW  Elec       q    Type
REMARK                         _______ _______ _______ _____ _____    ______ ____
ROOT
ATOM      1  C   LIG    1       -0.018   1.503   0.010  0.00  0.00    +0.100 C 
ATOM      2  C   LIG    1        0.002  -0.004   0.002  0.00  0.00    -0.070 A 
ATOM      3  C   LIG    1        0.006  -0.685  -1.213  0.00  0.00    +0.030 A 
ATOM      4  C   LIG    1        0.024  -2.045  -1.256  0.00  0.00    -0.050 A 
ATOM      5  C   LIG    1        0.040  -2.780  -0.059  0.00  0.00    +0.130 A 
ATOM      6  N   LIG    1        0.059  -4.117  -0.070  0.00  0.00    -0.460 NA
ATOM      7  C   LIG    1        0.074  -4.809   1.044  0.00  0.00    +0.310 A 
ATOM      8  C   LIG    1        0.072  -4.190   2.292  0.00  0.00    -0.010 A 
ATOM      9  C   LIG    1        0.053  -2.825   2.376  0.00  0.00    +0.020 A 
ATOM     10 CL   LIG    1        0.050  -2.026   3.917  0.00  0.00    -0.040 Cl
ATOM     11  C   LIG    1        0.037  -2.086   1.176  0.00  0.00    -0.090 A 
ATOM     12  C   LIG    1        0.027  -2.760  -2.583  0.00  0.00    +0.110 C 
ATOM     13  C   LIG    1        0.022  -0.682   1.183  0.00  0.00    +0.020 A 
ENDROOT
TORSDOF 0
ENDMDL
MODEL      768
REMARK  Name = ZINC000019952860
REMARK                            x       y       z     vdW  Elec       q    Type
REMARK                         _______ _______ _______ _____ _____    ______ ____
ROOT
ATOM      1  C   LIG    1       -0.018   1.503   0.010  0.00  0.00    +0.080 C 
ATOM      2  C   LIG    1        0.002  -0.004   0.002  0.00  0.00    -0.040 A 
ATOM      3  C   LIG    1        0.006  -0.688  -1.200  0.00  0.00    -0.060 A 
ATOM      4  C   LIG    1        0.025  -2.071  -1.212  0.00  0.00    -0.040 A 
ATOM      5  C   LIG    1        0.041  -2.773  -0.023  0.00  0.00    -0.080 A 
ATOM      6  C   LIG    1        0.037  -2.089   1.186  0.00  0.00    +0.230 A 
ATOM      7  C   LIG    1        0.029  -2.812  -2.524  0.00  0.00    +0.080 C 
ATOM      8  C   LIG    1        0.023  -0.700   1.195  0.00  0.00    -0.090 A 
ENDROOT
BRANCH   6   9
ATOM      9  N   LIG    1        0.053  -2.796   2.390  0.00  0.00    -0.740 N 
ATOM     10  H   LIG    1        0.067  -3.766   2.383  0.00  0.00    +0.400 HD
BRANCH   9  11
ATOM     11  C   LIG    1        0.049  -2.073   3.665  0.00  0.00    +0.230 C 
ATOM     12  C   LIG    1       -1.391  -1.733   4.053  0.00  0.00    +0.020 C 
BRANCH  11  13
ATOM     13  C   LIG    1        0.677  -2.950   4.750  0.00  0.00    -0.030 C 
ATOM     14  C   LIG    1        0.673  -2.195   6.081  0.00  0.00    +0.030 C 
ATOM     15  C   LIG    1        2.117  -3.291   4.362  0.00  0.00    +0.020 C 
ENDBRANCH  11  13
ENDBRANCH   9  11
ENDBRANCH   6   9
TORSDOF 3
ENDMDL
MODEL      769
REMARK  Name = ZINC000019952856
REMARK                            x       y       z     vdW  Elec       q    Type
REMARK                         _______ _______ _______ _____ _____    ______ ____
ROOT
ATOM      1  C   LIG    1       -0.018   1.503   0.010  0.00  0.00    +0.080 C 
ATOM      2  C   LIG    1        0.002  -0.004   0.002  0.00  0.00    -0.040 A 
ATOM      3  C   LIG    1        0.006  -0.688  -1.200  0.00  0.00    -0.060 A 
ATOM      4  C   LIG    1        0.025  -2.071  -1.212  0.00  0.00    -0.040 A 
ATOM      5  C   LIG    1        0.041  -2.773  -0.023  0.00  0.00    -0.080 A 
ATOM      6  C   LIG    1        0.037  -2.089   1.186  0.00  0.00    +0.230 A 
ATOM      7  C   LIG    1        0.029  -2.812  -2.524  0.00  0.00    +0.080 C 
ATOM      8  C   LIG    1        0.023  -0.700   1.195  0.00  0.00    -0.090 A 
ENDROOT
BRANCH   6   9
ATOM      9  N   LIG    1        0.053  -2.796   2.390  0.00  0.00    -0.740 N 
ATOM     10  H   LIG    1        0.067  -3.766   2.383  0.00  0.00    +0.400 HD
BRANCH   9  11
ATOM     11  C   LIG    1        0.049  -2.073   3.665  0.00  0.00    +0.230 C 
ATOM     12  C   LIG    1        1.483  -1.692   4.039  0.00  0.00    +0.020 C 
BRANCH  11  13
ATOM     13  C   LIG    1       -0.542  -2.967   4.756  0.00  0.00    -0.020 C 
ATOM     14  C   LIG    1       -0.662  -2.172   6.058  0.00  0.00    +0.030 C 
ATOM     15  C   LIG    1        0.372  -4.174   4.979  0.00  0.00    +0.020 C 
ENDBRANCH  11  13
ENDBRANCH   9  11
ENDBRANCH   6   9
TORSDOF 3
ENDMDL
MODEL      770
REMARK  Name = ZINC000002509970
REMARK                            x       y       z     vdW  Elec       q    Type
REMARK                         _______ _______ _______ _____ _____    ______ ____
ROOT
ATOM      1  C   LIG    1        0.707  -0.490  -1.238  0.00  0.00    -0.110 A 
ATOM      2  C   LIG    1       -0.011  -0.717  -2.392  0.00  0.00    +0.060 A 
ATOM      3  C   LIG    1        0.643  -1.166  -3.537  0.00  0.00    -0.100 A 
ATOM      4  C   LIG    1        2.028  -1.385  -3.514  0.00  0.00    +0.140 A 
ATOM      5  N   LIG    1        2.421  -1.823  -4.766  0.00  0.00    -0.620 N 
ATOM      6  H   LIG    1        3.332  -2.046  -5.015  0.00  0.00    +0.420 HD
ATOM      7  C   LIG    1        1.330  -1.897  -5.613  0.00  0.00    +0.140 A 
ATOM      8  C   LIG    1        1.203  -2.275  -6.946  0.00  0.00    -0.020 A 
ATOM      9  C   LIG    1       -0.033  -2.253  -7.555  0.00  0.00    +0.050 A 
ATOM     10  C   LIG    1       -1.160  -1.858  -6.849  0.00  0.00    -0.020 A 
ATOM     11  C   LIG    1       -1.054  -1.481  -5.527  0.00  0.00    +0.070 A 
ATOM     12  C   LIG    1        2.736  -1.151  -2.339  0.00  0.00    -0.020 A 
ATOM     13  C   LIG    1        0.189  -1.498  -4.900  0.00  0.00    -0.110 A 
ATOM     14  C   LIG    1        2.078  -0.702  -1.215  0.00  0.00    +0.050 A 
ENDROOT
BRANCH   1  16
ATOM     15  C   LIG    1       -0.019   1.526   0.010  0.00  0.00    +0.030 C 
ATOM     16  C   LIG    1        0.002  -0.004   0.002  0.00  0.00    +0.060 C 
ENDBRANCH   1  16
TORSDOF 1
ENDMDL
MODEL      771
REMARK  Name = ZINC000019772135
REMARK                            x       y       z     vdW  Elec       q    Type
REMARK                         _______ _______ _______ _____ _____    ______ ____
ROOT
ATOM      1  N   LIG    1        2.853  -2.027  -0.036  0.00  0.00    -0.740 N 
ATOM      2  H   LIG    1        3.066  -1.211  -0.516  0.00  0.00    +0.400 HD
ENDROOT
BRANCH   1   7
ATOM      3  C   LIG    1       -0.019   1.526   0.010  0.00  0.00    +0.000 C 
ATOM      4  C   LIG    1        0.002  -0.004   0.002  0.00  0.00    -0.020 C 
ATOM      5  C   LIG    1        0.718  -0.497  -1.257  0.00  0.00    +0.020 C 
ATOM      6  C   LIG    1        0.739  -2.027  -1.265  0.00  0.00    +0.020 C 
ATOM      7  C   LIG    1        1.479  -2.534  -0.026  0.00  0.00    +0.230 C 
ATOM      8  C   LIG    1        0.763  -2.041   1.233  0.00  0.00    +0.000 C 
ATOM      9  C   LIG    1        0.742  -0.511   1.242  0.00  0.00    +0.010 C 
ENDBRANCH   1   7
BRANCH   1  10
ATOM     10  C   LIG    1        3.858  -2.719   0.644  0.00  0.00    +0.220 A 
ATOM     11  C   LIG    1        3.557  -3.890   1.327  0.00  0.00    -0.080 A 
ATOM     12  C   LIG    1        4.553  -4.572   1.998  0.00  0.00    +0.050 A 
ATOM     13  C   LIG    1        5.849  -4.089   1.992  0.00  0.00    -0.060 A 
ATOM     14  C   LIG    1        6.152  -2.923   1.314  0.00  0.00    +0.050 A 
ATOM     15  C   LIG    1        5.162  -2.239   0.636  0.00  0.00    -0.080 A 
ENDBRANCH   1  10
TORSDOF 2
ENDMDL
MODEL      772
REMARK  Name = ZINC000002455698
REMARK                            x       y       z     vdW  Elec       q    Type
REMARK                         _______ _______ _______ _____ _____    ______ ____
ROOT
ATOM      1  C   LIG    1        0.707  -0.490  -1.238  0.00  0.00    -0.050 A 
ATOM      2  C   LIG    1       -0.014  -0.719  -2.401  0.00  0.00    +0.040 A 
ATOM      3  C   LIG    1        0.615  -1.162  -3.538  0.00  0.00    +0.090 A 
ATOM      4  C   LIG    1        2.005  -1.389  -3.538  0.00  0.00    +0.080 A 
ATOM      5  N   LIG    1        2.805  -1.819  -4.534  0.00  0.00    -0.450 NA
ATOM      6  C   LIG    1        4.054  -1.949  -4.282  0.00  0.00    +0.110 A 
ATOM      7  S   LIG    1        4.415  -1.525  -2.669  0.00  0.00    +0.170 S 
ATOM      8 CL   LIG    1        5.232  -2.487  -5.438  0.00  0.00    +0.030 Cl
ATOM      9  C   LIG    1        2.722  -1.155  -2.360  0.00  0.00    -0.180 A 
ATOM     10  C   LIG    1        2.068  -0.701  -1.217  0.00  0.00    +0.060 A 
ENDROOT
BRANCH   1  12
ATOM     11  C   LIG    1       -0.019   1.526   0.010  0.00  0.00    +0.030 C 
ATOM     12  C   LIG    1        0.002  -0.004   0.002  0.00  0.00    +0.070 C 
ENDBRANCH   1  12
TORSDOF 1
ENDMDL
MODEL      773
REMARK  Name = ZINC000004237695
REMARK                            x       y       z     vdW  Elec       q    Type
REMARK                         _______ _______ _______ _____ _____    ______ ____
ROOT
ATOM      1  C   LIG    1        0.576  -0.602  -1.267  0.00  0.00    -0.070 A 
ATOM      2  C   LIG    1       -0.219  -0.733  -2.388  0.00  0.00    +0.010 A 
ATOM      3  C   LIG    1        0.348  -1.066  -3.605  0.00  0.00    +0.030 A 
ATOM      4  C   LIG    1        1.712  -1.268  -3.702  0.00  0.00    +0.010 A 
ATOM      5  C   LIG    1        2.513  -1.138  -2.584  0.00  0.00    -0.070 A 
ATOM      6  C   LIG    1        1.947  -0.798  -1.363  0.00  0.00    +0.110 A 
ENDROOT
BRANCH   6   7
ATOM      7  N   LIG    1        2.757  -0.665  -0.226  0.00  0.00    -0.400 N 
ATOM      8  C   LIG    1        3.669   0.329  -0.011  0.00  0.00    +0.150 A 
ATOM      9  C   LIG    1        4.247   0.117   1.189  0.00  0.00    -0.060 A 
ATOM     10  C   LIG    1        3.673  -1.048   1.736  0.00  0.00    -0.060 A 
ATOM     11  C   LIG    1        2.761  -1.503   0.852  0.00  0.00    +0.150 A 
ENDBRANCH   6   7
BRANCH   1  13
ATOM     12  C   LIG    1        0.039   1.275   0.262  0.00  0.00    +0.030 C 
ATOM     13  C   LIG    1       -0.043  -0.239   0.059  0.00  0.00    +0.060 C 
ENDBRANCH   1  13
BRANCH   5  14
ATOM     14  C   LIG    1        4.000  -1.358  -2.691  0.00  0.00    +0.060 C 
ATOM     15  C   LIG    1        4.330  -2.804  -2.316  0.00  0.00    +0.030 C 
ENDBRANCH   5  14
TORSDOF 3
ENDMDL
MODEL      774
REMARK  Name = ZINC000041051133
REMARK                            x       y       z     vdW  Elec       q    Type
REMARK                         _______ _______ _______ _____ _____    ______ ____
ROOT
ATOM      1  C   LIG    1        0.731  -0.503   1.223  0.00  0.00    -0.030 A 
ATOM      2  C   LIG    1        2.097  -0.709   1.175  0.00  0.00    -0.060 A 
ATOM      3  C   LIG    1        2.770  -1.167   2.294  0.00  0.00    +0.050 A 
ATOM      4  C   LIG    1        2.079  -1.420   3.462  0.00  0.00    -0.080 A 
ATOM      5  C   LIG    1        0.706  -1.214   3.513  0.00  0.00    +0.220 A 
ATOM      6  C   LIG    1        0.034  -0.749   2.390  0.00  0.00    -0.080 A 
ENDROOT
BRANCH   1   8
ATOM      7  C   LIG    1       -0.019   1.526   0.010  0.00  0.00    +0.020 C 
ATOM      8  C   LIG    1        0.002  -0.004   0.002  0.00  0.00    +0.050 C 
ENDBRANCH   1   8
BRANCH   5   9
ATOM      9  N   LIG    1        0.004  -1.469   4.693  0.00  0.00    -0.750 N 
ATOM     10  H   LIG    1       -0.955  -1.325   4.728  0.00  0.00    +0.400 HD
BRANCH   9  11
ATOM     11  C   LIG    1        0.715  -1.954   5.879  0.00  0.00    +0.260 C 
BRANCH  11  12
ATOM     12  C   LIG    1       -0.280  -2.151   7.025  0.00  0.00    -0.080 C 
ATOM     13  C   LIG    1       -0.958  -0.817   7.347  0.00  0.00    +0.030 C 
ATOM     14  C   LIG    1        0.463  -2.657   8.263  0.00  0.00    +0.040 C 
ATOM     15  C   LIG    1       -1.339  -3.175   6.611  0.00  0.00    +0.030 C 
ENDBRANCH  11  12
ENDBRANCH   9  11
ENDBRANCH   5   9
TORSDOF 4
ENDMDL
MODEL      775
REMARK  Name = ZINC000019962087
REMARK                            x       y       z     vdW  Elec       q    Type
REMARK                         _______ _______ _______ _____ _____    ______ ____
ROOT
ATOM      1  C   LIG    1        0.707  -0.490  -1.238  0.00  0.00    -0.030 A 
ATOM      2  C   LIG    1       -0.011  -0.718  -2.397  0.00  0.00    -0.060 A 
ATOM      3  C   LIG    1        0.632  -1.164  -3.537  0.00  0.00    +0.050 A 
ATOM      4  C   LIG    1        1.995  -1.383  -3.521  0.00  0.00    -0.080 A 
ATOM      5  C   LIG    1        2.721  -1.155  -2.359  0.00  0.00    +0.220 A 
ATOM      6  C   LIG    1        2.072  -0.702  -1.217  0.00  0.00    -0.080 A 
ENDROOT
BRANCH   1   8
ATOM      7  C   LIG    1       -0.019   1.526   0.010  0.00  0.00    +0.020 C 
ATOM      8  C   LIG    1        0.002  -0.004   0.002  0.00  0.00    +0.050 C 
ENDBRANCH   1   8
BRANCH   5   9
ATOM      9  N   LIG    1        4.100  -1.375  -2.340  0.00  0.00    -0.740 N 
ATOM     10  H   LIG    1        4.605  -1.215  -1.527  0.00  0.00    +0.400 HD
BRANCH   9  11
ATOM     11  C   LIG    1        4.783  -1.847  -3.546  0.00  0.00    +0.230 C 
ATOM     12  C   LIG    1        5.206  -0.646  -4.418  0.00  0.00    +0.000 C 
ATOM     13  C   LIG    1        6.679  -0.384  -4.014  0.00  0.00    +0.020 C 
ATOM     14  C   LIG    1        7.239  -1.815  -3.817  0.00  0.00    +0.010 C 
ATOM     15  C   LIG    1        6.075  -2.590  -3.164  0.00  0.00    +0.010 C 
ENDBRANCH   9  11
ENDBRANCH   5   9
TORSDOF 3
ENDMDL
MODEL      776
REMARK  Name = ZINC000001467748
REMARK                            x       y       z     vdW  Elec       q    Type
REMARK                         _______ _______ _______ _____ _____    ______ ____
ROOT
ATOM      1  C   LIG    1       -0.018   1.503   0.010  0.00  0.00    +0.100 C 
ATOM      2  C   LIG    1        0.002  -0.004   0.002  0.00  0.00    -0.110 A 
ATOM      3  C   LIG    1        0.006  -0.689  -1.198  0.00  0.00    +0.020 A 
ATOM      4  C   LIG    1        0.024  -2.071  -1.206  0.00  0.00    -0.080 A 
ATOM      5  C   LIG    1        0.039  -2.772  -0.014  0.00  0.00    +0.020 A 
ATOM      6  C   LIG    1        0.036  -2.092   1.188  0.00  0.00    -0.010 A 
ATOM      7  C   LIG    1        0.023  -0.705   1.199  0.00  0.00    +0.100 A 
ENDROOT
BRANCH   4   8
ATOM      8  C   LIG    1        0.028  -2.816  -2.516  0.00  0.00    +0.030 C 
ATOM      9  C   LIG    1        1.288  -3.678  -2.609  0.00  0.00    +0.010 C 
ATOM     10  C   LIG    1        1.292  -4.434  -3.939  0.00  0.00    +0.000 C 
ATOM     11  C   LIG    1        0.054  -5.330  -4.021  0.00  0.00    +0.000 C 
ATOM     12  C   LIG    1       -1.206  -4.467  -3.928  0.00  0.00    +0.000 C 
ATOM     13  C   LIG    1       -1.210  -3.711  -2.598  0.00  0.00    +0.010 C 
ENDBRANCH   4   8
BRANCH   7  14
ATOM     14  O   LIG    1        0.020  -0.034   2.381  0.00  0.00    -0.500 OA
ATOM     15  H   LIG    1        0.902   0.169   2.721  0.00  0.00    +0.390 HD
ENDBRANCH   7  14
TORSDOF 2
ENDMDL
MODEL      777
REMARK  Name = ZINC000001459890
REMARK                            x       y       z     vdW  Elec       q    Type
REMARK                         _______ _______ _______ _____ _____    ______ ____
ROOT
ATOM      1  C   LIG    1       -0.019   1.526   0.010  0.00  0.00    +0.050 C 
ATOM      2  C   LIG    1        0.002  -0.004   0.002  0.00  0.00    +0.090 C 
ATOM      3  C   LIG    1        0.777  -0.507  -1.191  0.00  0.00    -0.090 A 
ATOM      4  C   LIG    1        0.590  -0.353  -2.548  0.00  0.00    +0.020 A 
ATOM      5  C   LIG    1        1.473  -0.936  -3.440  0.00  0.00    +0.020 A 
ATOM      6  C   LIG    1        2.546  -1.673  -2.972  0.00  0.00    +0.010 A 
ATOM      7  C   LIG    1        2.742  -1.831  -1.615  0.00  0.00    +0.020 A 
ATOM      8  C   LIG    1        1.855  -1.246  -0.710  0.00  0.00    -0.060 A 
ATOM      9  C   LIG    1        1.826  -1.254   0.773  0.00  0.00    -0.060 A 
ATOM     10  C   LIG    1        2.678  -1.847   1.706  0.00  0.00    +0.020 A 
ATOM     11  C   LIG    1        2.429  -1.702   3.056  0.00  0.00    +0.010 A 
ATOM     12  C   LIG    1        1.338  -0.971   3.489  0.00  0.00    +0.020 A 
ATOM     13  C   LIG    1        0.489  -0.380   2.570  0.00  0.00    +0.020 A 
ATOM     14  C   LIG    1        0.729  -0.520   1.219  0.00  0.00    -0.090 A 
ENDROOT
TORSDOF 0
ENDMDL
MODEL      778
REMARK  Name = ZINC000111343952
REMARK                            x       y       z     vdW  Elec       q    Type
REMARK                         _______ _______ _______ _____ _____    ______ ____
ROOT
ATOM      1  C   LIG    1       -1.412  -0.526   0.013  0.00  0.00    -0.070 A 
ATOM      2  C   LIG    1       -2.014  -0.864   1.210  0.00  0.00    +0.050 A 
ATOM      3  C   LIG    1       -3.311  -1.343   1.220  0.00  0.00    +0.040 A 
ATOM      4  C   LIG    1       -4.006  -1.484   0.033  0.00  0.00    -0.030 A 
ATOM      5  C   LIG    1       -3.404  -1.145  -1.166  0.00  0.00    +0.040 A 
ATOM      6 CL   LIG    1       -5.635  -2.084   0.046  0.00  0.00    -0.060 Cl
ATOM      7  C   LIG    1       -2.108  -0.661  -1.175  0.00  0.00    -0.030 A 
ATOM      8 CL   LIG    1       -1.351  -0.235  -2.679  0.00  0.00    -0.050 Cl
ENDROOT
BRANCH   1  10
ATOM      9  C   LIG    1       -0.019   1.526   0.010  0.00  0.00    +0.030 C 
ATOM     10  C   LIG    1        0.002  -0.004   0.002  0.00  0.00    +0.070 C 
ENDBRANCH   1  10
TORSDOF 1
ENDMDL
MODEL      779
REMARK  Name = ZINC000000404355
REMARK                            x       y       z     vdW  Elec       q    Type
REMARK                         _______ _______ _______ _____ _____    ______ ____
ROOT
ATOM      1  C   LIG    1       -0.018   1.503   0.010  0.00  0.00    +0.110 C 
ATOM      2  C   LIG    1        0.002  -0.004   0.002  0.00  0.00    -0.070 A 
ATOM      3  C   LIG    1        0.006  -0.689  -1.199  0.00  0.00    +0.040 A 
ATOM      4  C   LIG    1        0.025  -2.072  -1.206  0.00  0.00    -0.030 A 
ATOM      5  C   LIG    1        0.041  -2.770  -0.012  0.00  0.00    -0.070 A 
ATOM      6  C   LIG    1        0.038  -2.086   1.189  0.00  0.00    +0.040 A 
ATOM      7  C   LIG    1        0.061  -4.277  -0.020  0.00  0.00    +0.110 C 
ATOM      8 CL   LIG    1        0.029  -2.932  -2.714  0.00  0.00    -0.060 Cl
ATOM      9  C   LIG    1        0.023  -0.702   1.196  0.00  0.00    -0.030 A 
ATOM     10 CL   LIG    1        0.019   0.158   2.704  0.00  0.00    -0.060 Cl
ENDROOT
TORSDOF 0
ENDMDL
MODEL      780
REMARK  Name = ZINC000003121807
REMARK                            x       y       z     vdW  Elec       q    Type
REMARK                         _______ _______ _______ _____ _____    ______ ____
ROOT
ATOM      1  C   LIG    1       -0.018   1.503   0.010  0.00  0.00    +0.090 C 
ATOM      2  C   LIG    1        0.002  -0.004   0.002  0.00  0.00    -0.080 A 
ATOM      3  C   LIG    1        0.006  -0.688  -1.199  0.00  0.00    +0.020 A 
ATOM      4  C   LIG    1        0.025  -2.072  -1.206  0.00  0.00    -0.040 A 
ATOM      5  C   LIG    1        0.040  -2.769  -0.011  0.00  0.00    -0.080 A 
ATOM      6  C   LIG    1        0.036  -2.084   1.189  0.00  0.00    -0.070 A 
ATOM      7  C   LIG    1        0.052  -2.843   2.490  0.00  0.00    +0.090 C 
ATOM      8  C   LIG    1        0.060  -4.276  -0.019  0.00  0.00    +0.100 C 
ATOM      9 CL   LIG    1        0.030  -2.932  -2.714  0.00  0.00    -0.070 Cl
ATOM     10  C   LIG    1        0.023  -0.702   1.196  0.00  0.00    -0.080 A 
ATOM     11  C   LIG    1        0.019   0.045   2.505  0.00  0.00    +0.090 C 
ENDROOT
TORSDOF 0
ENDMDL
MODEL      781
REMARK  Name = ZINC000041051131
REMARK                            x       y       z     vdW  Elec       q    Type
REMARK                         _______ _______ _______ _____ _____    ______ ____
ROOT
ATOM      1  C   LIG    1       -0.018   1.503   0.010  0.00  0.00    +0.090 C 
ATOM      2  C   LIG    1        0.002  -0.004   0.002  0.00  0.00    -0.140 A 
ATOM      3  C   LIG    1        0.006  -0.689  -1.197  0.00  0.00    +0.020 A 
ATOM      4  C   LIG    1        0.025  -2.073  -1.206  0.00  0.00    +0.040 A 
ATOM      5  C   LIG    1        0.041  -2.774  -0.012  0.00  0.00    +0.020 A 
ATOM      6  C   LIG    1        0.037  -2.094   1.190  0.00  0.00    -0.040 A 
ATOM      7  F   LIG    1        0.028  -2.741  -2.380  0.00  0.00    -0.150 F 
ATOM      8  C   LIG    1        0.023  -0.706   1.201  0.00  0.00    +0.210 A 
ENDROOT
BRANCH   8   9
ATOM      9  N   LIG    1        0.020  -0.015   2.416  0.00  0.00    -0.740 N 
ATOM     10  H   LIG    1        0.010   0.955   2.423  0.00  0.00    +0.400 HD
BRANCH   9  11
ATOM     11  C   LIG    1        0.033  -0.756   3.680  0.00  0.00    +0.250 C 
BRANCH  11  12
ATOM     12  C   LIG    1        0.026   0.231   4.850  0.00  0.00    -0.080 C 
ATOM     13  C   LIG    1        1.266   1.124   4.770  0.00  0.00    +0.030 C 
ATOM     14  C   LIG    1        0.039  -0.543   6.169  0.00  0.00    +0.040 C 
ATOM     15  C   LIG    1       -1.232   1.098   4.779  0.00  0.00    +0.030 C 
ENDBRANCH  11  12
ENDBRANCH   9  11
ENDBRANCH   8   9
TORSDOF 3
ENDMDL
MODEL      782
REMARK  Name = ZINC000169429696
REMARK                            x       y       z     vdW  Elec       q    Type
REMARK                         _______ _______ _______ _____ _____    ______ ____
ROOT
ATOM      1  C   LIG    1        0.019   0.013   2.491  0.00  0.00    +0.050 C 
ATOM      2  C   LIG    1        0.028  -0.669   3.647  0.00  0.00    +0.010 C 
ENDROOT
BRANCH   1   9
ATOM      3  C   LIG    1       -0.018   1.503   0.010  0.00  0.00    +0.090 C 
ATOM      4  C   LIG    1        0.002  -0.004   0.002  0.00  0.00    -0.070 A 
ATOM      5  C   LIG    1        0.006  -0.689  -1.195  0.00  0.00    +0.010 A 
ATOM      6  C   LIG    1        0.024  -2.073  -1.204  0.00  0.00    +0.010 A 
ATOM      7  C   LIG    1        0.039  -2.779  -0.015  0.00  0.00    -0.010 A 
ATOM      8  C   LIG    1        0.036  -2.108   1.190  0.00  0.00    +0.020 A 
ATOM      9  C   LIG    1        0.023  -0.711   1.207  0.00  0.00    -0.070 A 
ENDBRANCH   1   9
BRANCH   2  10
ATOM     10  C   LIG    1        0.024   0.055   4.930  0.00  0.00    -0.010 A 
ATOM     11  C   LIG    1        0.006   1.456   4.967  0.00  0.00    -0.030 A 
ATOM     12  C   LIG    1        0.002   2.092   6.190  0.00  0.00    +0.260 A 
ATOM     13  N   LIG    1        0.017   1.401   7.314  0.00  0.00    -0.490 NA
ATOM     14  C   LIG    1        0.034   0.081   7.325  0.00  0.00    +0.260 A 
ATOM     15  C   LIG    1        0.033  -0.637   6.149  0.00  0.00    -0.030 A 
ENDBRANCH   2  10
TORSDOF 2
ENDMDL
MODEL      783
REMARK  Name = ZINC000061117544
REMARK                            x       y       z     vdW  Elec       q    Type
REMARK                         _______ _______ _______ _____ _____    ______ ____
ROOT
ATOM      1  C   LIG    1       -0.018   1.503   0.010  0.00  0.00    +0.100 C 
ATOM      2  C   LIG    1        0.002  -0.004   0.002  0.00  0.00    -0.070 A 
ATOM      3  C   LIG    1        0.006  -0.688  -1.198  0.00  0.00    -0.040 A 
ATOM      4  C   LIG    1        0.025  -2.076  -1.205  0.00  0.00    +0.210 A 
ATOM      5  C   LIG    1        0.040  -2.775  -0.005  0.00  0.00    -0.050 A 
ATOM      6  C   LIG    1        0.036  -2.087   1.193  0.00  0.00    +0.030 A 
ATOM      7  C   LIG    1        0.023  -0.702   1.198  0.00  0.00    +0.030 A 
ATOM      8  F   LIG    1        0.020  -0.032   2.371  0.00  0.00    -0.140 F 
ENDROOT
BRANCH   4   9
ATOM      9  N   LIG    1        0.029  -2.770  -2.419  0.00  0.00    -0.740 N 
ATOM     10  H   LIG    1        0.018  -2.282  -3.257  0.00  0.00    +0.400 HD
BRANCH   9  11
ATOM     11  C   LIG    1        0.049  -4.235  -2.425  0.00  0.00    +0.230 C 
ATOM     12  C   LIG    1        1.493  -4.726  -2.308  0.00  0.00    +0.020 C 
BRANCH  11  13
ATOM     13  C   LIG    1       -0.560  -4.748  -3.732  0.00  0.00    -0.020 C 
ATOM     14  C   LIG    1       -0.654  -6.274  -3.686  0.00  0.00    +0.030 C 
ATOM     15  C   LIG    1        0.325  -4.326  -4.907  0.00  0.00    +0.020 C 
ENDBRANCH  11  13
ENDBRANCH   9  11
ENDBRANCH   4   9
TORSDOF 3
ENDMDL
MODEL      784
REMARK  Name = ZINC000001589956
REMARK                            x       y       z     vdW  Elec       q    Type
REMARK                         _______ _______ _______ _____ _____    ______ ____
ROOT
ATOM      1  C   LIG    1        0.863  -1.968  -1.486  0.00  0.00    +0.000 C 
ATOM      2  C   LIG    1        1.006  -2.218  -2.989  0.00  0.00    +0.040 C 
ATOM      3  C   LIG    1        2.379  -1.702  -3.438  0.00  0.00    +0.010 C 
ATOM      4  C   LIG    1        3.458  -2.583  -2.806  0.00  0.00    +0.050 C 
ATOM      5  C   LIG    1        3.208  -2.733  -1.334  0.00  0.00    -0.020 C 
ATOM      6  C   LIG    1        2.079  -2.469  -0.763  0.00  0.00    -0.130 C 
ATOM      7  C   LIG    1        1.974  -2.677   0.726  0.00  0.00    +0.060 C 
ENDROOT
BRANCH   3   8
ATOM      8  C   LIG    1        2.481  -1.770  -4.963  0.00  0.00    -0.020 C 
ATOM      9  C   LIG    1        3.851  -1.254  -5.406  0.00  0.00    +0.010 C 
ATOM     10  C   LIG    1        1.384  -0.905  -5.586  0.00  0.00    +0.010 C 
ENDBRANCH   3   8
BRANCH   1  11
ATOM     11  C   LIG    1        0.707  -0.490  -1.238  0.00  0.00    +0.370 C 
ATOM     12  O   LIG    1        1.148   0.305  -2.033  0.00  0.00    -0.440 OA
BRANCH  11  14
ATOM     13  C   LIG    1       -0.019   1.526   0.010  0.00  0.00    +0.030 C 
ATOM     14  C   LIG    1        0.002  -0.004   0.002  0.00  0.00    +0.020 C 
ENDBRANCH  11  14
ENDBRANCH   1  11
TORSDOF 3
ENDMDL
MODEL      785
REMARK  Name = ZINC000002576203
REMARK                            x       y       z     vdW  Elec       q    Type
REMARK                         _______ _______ _______ _____ _____    ______ ____
ROOT
ATOM      1  C   LIG    1        0.887  -1.949   1.447  0.00  0.00    -0.180 A 
ATOM      2  C   LIG    1        0.366  -2.864   0.525  0.00  0.00    +0.060 A 
ATOM      3  C   LIG    1        0.516  -4.217   0.742  0.00  0.00    +0.000 A 
ATOM      4  C   LIG    1        1.181  -4.671   1.868  0.00  0.00    -0.040 A 
ATOM      5  C   LIG    1        1.700  -3.773   2.784  0.00  0.00    +0.000 A 
ATOM      6  C   LIG    1        1.563  -2.417   2.578  0.00  0.00    +0.070 A 
ENDROOT
BRANCH   1   7
ATOM      7  C   LIG    1        0.731  -0.503   1.223  0.00  0.00    +0.390 C 
ATOM      8  O   LIG    1        1.189   0.287   2.021  0.00  0.00    -0.450 OA
BRANCH   7  10
ATOM      9  C   LIG    1       -0.019   1.526   0.010  0.00  0.00    +0.030 C 
ATOM     10  C   LIG    1        0.002  -0.004   0.002  0.00  0.00    +0.030 C 
ENDBRANCH   7  10
ENDBRANCH   1   7
BRANCH   4  11
ATOM     11  C   LIG    1        1.341  -6.152   2.097  0.00  0.00    +0.020 C 
ATOM     12  C   LIG    1        0.671  -6.540   3.417  0.00  0.00    +0.030 C 
BRANCH  11  13
ATOM     13  C   LIG    1        2.829  -6.501   2.158  0.00  0.00    +0.000 C 
ATOM     14  C   LIG    1        2.994  -8.018   2.266  0.00  0.00    +0.010 C 
ENDBRANCH  11  13
ENDBRANCH   4  11
TORSDOF 4
ENDMDL
MODEL      786
REMARK  Name = ZINC000001589954
REMARK                            x       y       z     vdW  Elec       q    Type
REMARK                         _______ _______ _______ _____ _____    ______ ____
ROOT
ATOM      1  C   LIG    1        0.863  -1.968  -1.486  0.00  0.00    +0.000 C 
ATOM      2  C   LIG    1        1.006  -2.218  -2.989  0.00  0.00    +0.040 C 
ATOM      3  C   LIG    1        1.421  -3.680  -3.200  0.00  0.00    -0.010 C 
ATOM      4  C   LIG    1        2.837  -3.865  -2.652  0.00  0.00    +0.070 C 
ATOM      5  C   LIG    1        2.934  -3.298  -1.266  0.00  0.00    -0.030 C 
ATOM      6  C   LIG    1        2.079  -2.469  -0.763  0.00  0.00    -0.120 C 
ATOM      7  C   LIG    1        2.315  -1.976   0.641  0.00  0.00    +0.070 C 
ENDROOT
BRANCH   3   8
ATOM      8  C   LIG    1        1.395  -4.011  -4.694  0.00  0.00    -0.020 C 
ATOM      9  C   LIG    1       -0.019  -3.800  -5.238  0.00  0.00    +0.010 C 
ATOM     10  C   LIG    1        1.809  -5.469  -4.900  0.00  0.00    +0.010 C 
ENDBRANCH   3   8
BRANCH   1  11
ATOM     11  C   LIG    1        0.707  -0.490  -1.238  0.00  0.00    +0.360 C 
ATOM     12  O   LIG    1        1.148   0.305  -2.033  0.00  0.00    -0.450 OA
BRANCH  11  14
ATOM     13  C   LIG    1       -0.019   1.526   0.010  0.00  0.00    +0.030 C 
ATOM     14  C   LIG    1        0.002  -0.004   0.002  0.00  0.00    +0.020 C 
ENDBRANCH  11  14
ENDBRANCH   1  11
TORSDOF 3
ENDMDL
MODEL      787
REMARK  Name = ZINC000001508333
REMARK                            x       y       z     vdW  Elec       q    Type
REMARK                         _______ _______ _______ _____ _____    ______ ____
ROOT
ATOM      1  C   LIG    1       -0.466   1.460   0.073  0.00  0.00    +0.090 C 
ATOM      2  C   LIG    1       -0.212  -0.025   0.032  0.00  0.00    -0.070 A 
ATOM      3  C   LIG    1       -0.313  -0.710  -1.163  0.00  0.00    -0.010 A 
ATOM      4  C   LIG    1       -0.079  -2.077  -1.200  0.00  0.00    +0.100 A 
ATOM      5  C   LIG    1        0.256  -2.752  -0.036  0.00  0.00    -0.020 A 
ATOM      6  C   LIG    1        0.356  -2.063   1.157  0.00  0.00    +0.040 A 
ATOM      7  C   LIG    1        0.127  -0.700   1.190  0.00  0.00    -0.080 A 
ENDROOT
BRANCH   7   8
ATOM      8  C   LIG    1        0.237   0.050   2.493  0.00  0.00    +0.030 C 
ATOM      9  C   LIG    1       -0.858  -0.426   3.450  0.00  0.00    +0.010 C 
ATOM     10  C   LIG    1       -0.746   0.335   4.772  0.00  0.00    +0.000 C 
ATOM     11  C   LIG    1        0.626   0.074   5.397  0.00  0.00    +0.000 C 
ATOM     12  C   LIG    1        1.721   0.550   4.440  0.00  0.00    +0.000 C 
ATOM     13  C   LIG    1        1.609  -0.211   3.118  0.00  0.00    +0.010 C 
ENDBRANCH   7   8
BRANCH   4  14
ATOM     14  O   LIG    1       -0.177  -2.753  -2.375  0.00  0.00    -0.500 OA
ATOM     15  H   LIG    1        0.650  -2.798  -2.873  0.00  0.00    +0.390 HD
ENDBRANCH   4  14
TORSDOF 2
ENDMDL
MODEL      788
REMARK  Name = ZINC000002757367
REMARK                            x       y       z     vdW  Elec       q    Type
REMARK                         _______ _______ _______ _____ _____    ______ ____
ROOT
ATOM      1  C   LIG    1        0.887  -1.949   1.447  0.00  0.00    -0.180 A 
ATOM      2  C   LIG    1        0.366  -2.864   0.525  0.00  0.00    +0.060 A 
ATOM      3  C   LIG    1        0.516  -4.217   0.742  0.00  0.00    +0.000 A 
ATOM      4  C   LIG    1        1.181  -4.671   1.868  0.00  0.00    -0.040 A 
ATOM      5  C   LIG    1        1.700  -3.773   2.784  0.00  0.00    +0.000 A 
ATOM      6  C   LIG    1        1.563  -2.417   2.578  0.00  0.00    +0.070 A 
ENDROOT
BRANCH   1   7
ATOM      7  C   LIG    1        0.731  -0.503   1.223  0.00  0.00    +0.390 C 
ATOM      8  O   LIG    1        1.189   0.287   2.021  0.00  0.00    -0.450 OA
BRANCH   7  10
ATOM      9  C   LIG    1       -0.019   1.526   0.010  0.00  0.00    +0.030 C 
ATOM     10  C   LIG    1        0.002  -0.004   0.002  0.00  0.00    +0.030 C 
ENDBRANCH   7  10
ENDBRANCH   1   7
BRANCH   4  11
ATOM     11  C   LIG    1        1.341  -6.152   2.097  0.00  0.00    +0.020 C 
ATOM     12  C   LIG    1        2.829  -6.501   2.158  0.00  0.00    +0.030 C 
BRANCH  11  13
ATOM     13  C   LIG    1        0.671  -6.540   3.417  0.00  0.00    +0.000 C 
ATOM     14  C   LIG    1        0.725  -8.059   3.589  0.00  0.00    +0.010 C 
ENDBRANCH  11  13
ENDBRANCH   4  11
TORSDOF 4
ENDMDL
MODEL      789
REMARK  Name = ZINC000000503390
REMARK                            x       y       z     vdW  Elec       q    Type
REMARK                         _______ _______ _______ _____ _____    ______ ____
ROOT
ATOM      1  C   LIG    1       -0.018   1.503   0.010  0.00  0.00    +0.110 C 
ATOM      2  C   LIG    1        0.002  -0.004   0.002  0.00  0.00    -0.070 A 
ATOM      3  C   LIG    1        0.006  -0.688  -1.192  0.00  0.00    +0.060 A 
ATOM      4  C   LIG    1        0.024  -2.089  -1.225  0.00  0.00    -0.100 A 
ATOM      5  C   LIG    1        0.039  -2.791  -0.030  0.00  0.00    -0.100 A 
ATOM      6  S   LIG    1        0.060  -4.549  -0.227  0.00  0.00    -0.100 S 
ATOM      7  C   LIG    1       -0.520  -4.706  -1.952  0.00  0.00    +0.110 C 
ATOM      8  C   LIG    1       -2.043  -4.836  -2.010  0.00  0.00    +0.090 C 
ATOM      9  C   LIG    1        0.035  -2.081   1.178  0.00  0.00    +0.060 A 
ATOM     10  S   LIG    1        0.030  -3.117  -2.665  0.00  0.00    -0.100 S 
ATOM     11  C   LIG    1        0.023  -0.704   1.194  0.00  0.00    -0.070 A 
ATOM     12  C   LIG    1        0.020   0.036   2.507  0.00  0.00    +0.110 C 
ENDROOT
TORSDOF 0
ENDMDL
MODEL      790
REMARK  Name = ZINC000005782779
REMARK                            x       y       z     vdW  Elec       q    Type
REMARK                         _______ _______ _______ _____ _____    ______ ____
ROOT
ATOM      1  C   LIG    1       -0.018   1.503   0.010  0.00  0.00    +0.140 C 
ATOM      2  C   LIG    1        0.002  -0.004   0.002  0.00  0.00    -0.160 A 
ATOM      3  C   LIG    1       -1.077  -0.761   0.003  0.00  0.00    +0.010 A 
ATOM      4  C   LIG    1       -0.820  -2.193  -0.006  0.00  0.00    -0.070 A 
ATOM      5  C   LIG    1       -1.736  -3.266  -0.008  0.00  0.00    +0.040 A 
ATOM      6  C   LIG    1       -1.291  -4.553  -0.017  0.00  0.00    +0.020 A 
ATOM      7  C   LIG    1        0.069  -4.830  -0.024  0.00  0.00    +0.020 A 
ATOM      8  C   LIG    1        0.984  -3.804  -0.023  0.00  0.00    -0.050 A 
ATOM      9  C   LIG    1        2.459  -4.112  -0.032  0.00  0.00    +0.100 C 
ATOM     10  C   LIG    1        0.549  -2.475  -0.014  0.00  0.00    -0.140 A 
ATOM     11  S   LIG    1        1.464  -0.972  -0.018  0.00  0.00    +0.090 S 
ENDROOT
TORSDOF 0
ENDMDL
MODEL      791
REMARK  Name = ZINC000011919326
REMARK                            x       y       z     vdW  Elec       q    Type
REMARK                         _______ _______ _______ _____ _____    ______ ____
ROOT
ATOM      1  C   LIG    1       -0.018   1.503   0.010  0.00  0.00    +0.110 C 
ATOM      2  C   LIG    1        0.002  -0.004   0.002  0.00  0.00    -0.070 A 
ATOM      3  C   LIG    1        0.006  -0.685  -1.207  0.00  0.00    -0.060 A 
ATOM      4  C   LIG    1        0.024  -2.061  -1.224  0.00  0.00    +0.070 A 
ATOM      5  C   LIG    1        0.040  -2.774  -0.028  0.00  0.00    -0.180 A 
ATOM      6  S   LIG    1        0.064  -4.504   0.303  0.00  0.00    +0.170 S 
ATOM      7  C   LIG    1        0.068  -4.208   1.984  0.00  0.00    +0.110 A 
ATOM      8  N   LIG    1        0.052  -2.953   2.240  0.00  0.00    -0.450 NA
ATOM      9 CL   LIG    1        0.090  -5.451   3.195  0.00  0.00    +0.030 Cl
ATOM     10  C   LIG    1        0.036  -2.099   1.198  0.00  0.00    +0.090 A 
ATOM     11  C   LIG    1       -0.011   0.084  -2.503  0.00  0.00    +0.110 C 
ATOM     12  C   LIG    1        0.023  -0.690   1.190  0.00  0.00    +0.080 A 
ENDROOT
TORSDOF 0
ENDMDL
MODEL      792
REMARK  Name = ZINC000064220276
REMARK                            x       y       z     vdW  Elec       q    Type
REMARK                         _______ _______ _______ _____ _____    ______ ____
ROOT
ATOM      1  C   LIG    1       -0.018   1.503   0.010  0.00  0.00    +0.100 C 
ATOM      2  C   LIG    1        0.002  -0.004   0.002  0.00  0.00    -0.050 A 
ATOM      3  C   LIG    1        0.006  -0.686  -1.201  0.00  0.00    +0.000 A 
ATOM      4  C   LIG    1        0.024  -2.066  -1.216  0.00  0.00    +0.060 A 
ATOM      5  C   LIG    1        0.039  -2.774  -0.016  0.00  0.00    -0.090 A 
ATOM      6  C   LIG    1        0.036  -2.081   1.196  0.00  0.00    +0.110 A 
ATOM      7  F   LIG    1        0.051  -2.760   2.363  0.00  0.00    -0.130 F 
ATOM      8  C   LIG    1        0.023  -0.699   1.198  0.00  0.00    -0.020 A 
ENDROOT
BRANCH   5   9
ATOM      9  C   LIG    1        0.059  -4.257  -0.027  0.00  0.00    -0.050 A 
ATOM     10  C   LIG    1       -0.855  -4.964  -0.806  0.00  0.00    +0.020 A 
ATOM     11  C   LIG    1       -0.831  -6.344  -0.812  0.00  0.00    +0.010 A 
ATOM     12  C   LIG    1        0.096  -7.026  -0.045  0.00  0.00    +0.000 A 
ATOM     13  C   LIG    1        1.006  -6.329   0.731  0.00  0.00    +0.010 A 
ATOM     14  C   LIG    1        0.996  -4.949   0.739  0.00  0.00    +0.020 A 
ENDBRANCH   5   9
TORSDOF 1
ENDMDL
MODEL      793
REMARK  Name = ZINC000002040357
REMARK                            x       y       z     vdW  Elec       q    Type
REMARK                         _______ _______ _______ _____ _____    ______ ____
ROOT
ATOM      1  C   LIG    1       -0.018   1.503   0.010  0.00  0.00    +0.090 C 
ATOM      2  C   LIG    1        0.002  -0.004   0.002  0.00  0.00    -0.080 A 
ATOM      3  C   LIG    1        0.006  -0.686  -1.201  0.00  0.00    +0.000 A 
ATOM      4  C   LIG    1        0.024  -2.067  -1.215  0.00  0.00    +0.020 A 
ATOM      5  C   LIG    1        0.040  -2.772  -0.013  0.00  0.00    -0.050 A 
ATOM      6  C   LIG    1        0.036  -2.080   1.196  0.00  0.00    +0.020 A 
ATOM      7  C   LIG    1        0.023  -0.700   1.198  0.00  0.00    +0.000 A 
ENDROOT
BRANCH   5   8
ATOM      8  C   LIG    1        0.060  -4.256  -0.021  0.00  0.00    -0.040 A 
ATOM      9  C   LIG    1        0.070  -4.948  -1.230  0.00  0.00    +0.000 A 
ATOM     10  C   LIG    1        0.089  -6.329  -1.232  0.00  0.00    +0.010 A 
ATOM     11  C   LIG    1        0.099  -7.024  -0.037  0.00  0.00    +0.000 A 
ATOM     12  C   LIG    1        0.089  -6.342   1.167  0.00  0.00    -0.080 A 
ATOM     13  C   LIG    1        0.099  -7.106   2.465  0.00  0.00    +0.090 C 
ATOM     14  C   LIG    1        0.075  -4.962   1.180  0.00  0.00    +0.010 A 
ENDBRANCH   5   8
TORSDOF 1
ENDMDL
MODEL      794
REMARK  Name = ZINC000065339924
REMARK                            x       y       z     vdW  Elec       q    Type
REMARK                         _______ _______ _______ _____ _____    ______ ____
ROOT
ATOM      1  C   LIG    1       -0.018   1.503   0.010  0.00  0.00    +0.090 C 
ATOM      2  C   LIG    1        0.002  -0.004   0.002  0.00  0.00    -0.080 A 
ATOM      3  C   LIG    1        0.006  -0.686  -1.201  0.00  0.00    -0.010 A 
ATOM      4  C   LIG    1        0.024  -2.067  -1.214  0.00  0.00    +0.020 A 
ATOM      5  C   LIG    1        0.040  -2.772  -0.013  0.00  0.00    -0.060 A 
ATOM      6  C   LIG    1        0.036  -2.079   1.196  0.00  0.00    -0.070 A 
ATOM      7  C   LIG    1        0.052  -2.836   2.499  0.00  0.00    +0.090 C 
ATOM      8  C   LIG    1        0.023  -0.700   1.198  0.00  0.00    +0.000 A 
ENDROOT
BRANCH   5   9
ATOM      9  C   LIG    1        0.060  -4.256  -0.021  0.00  0.00    -0.050 A 
ATOM     10  C   LIG    1        0.994  -4.945   0.750  0.00  0.00    +0.040 A 
ATOM     11  C   LIG    1        1.010  -6.324   0.741  0.00  0.00    -0.010 A 
ATOM     12  C   LIG    1        0.098  -7.026  -0.036  0.00  0.00    +0.110 A 
ATOM     13  C   LIG    1       -0.833  -6.341  -0.806  0.00  0.00    -0.010 A 
ATOM     14  C   LIG    1       -0.858  -4.963  -0.796  0.00  0.00    +0.040 A 
BRANCH  12  15
ATOM     15  O   LIG    1        0.117  -8.384  -0.043  0.00  0.00    -0.500 OA
ATOM     16  H   LIG    1       -0.446  -8.789   0.631  0.00  0.00    +0.390 HD
ENDBRANCH  12  15
ENDBRANCH   5   9
TORSDOF 2
ENDMDL
MODEL      795
REMARK  Name = ZINC000001690325
REMARK                            x       y       z     vdW  Elec       q    Type
REMARK                         _______ _______ _______ _____ _____    ______ ____
ROOT
ATOM      1  N   LIG    1        0.711  -0.489   1.189  0.00  0.00    -0.510 N 
ATOM      2  C   LIG    1        2.071  -0.729   1.254  0.00  0.00    +0.140 A 
ATOM      3  C   LIG    1        2.379  -1.183   2.546  0.00  0.00    -0.110 A 
ATOM      4  C   LIG    1        1.108  -1.211   3.293  0.00  0.00    -0.110 A 
ATOM      5  C   LIG    1        0.771  -1.565   4.597  0.00  0.00    +0.060 A 
ATOM      6  C   LIG    1       -0.541  -1.485   5.011  0.00  0.00    -0.020 A 
ATOM      7  C   LIG    1       -1.524  -1.048   4.136  0.00  0.00    +0.050 A 
ATOM      8  C   LIG    1       -1.203  -0.691   2.844  0.00  0.00    -0.020 A 
ATOM      9  C   LIG    1        3.694  -1.499   2.880  0.00  0.00    +0.060 A 
ATOM     10  C   LIG    1        4.691  -1.365   1.937  0.00  0.00    -0.020 A 
ATOM     11  C   LIG    1        4.388  -0.916   0.660  0.00  0.00    +0.050 A 
ATOM     12  C   LIG    1        3.092  -0.601   0.317  0.00  0.00    -0.020 A 
ATOM     13  C   LIG    1        0.116  -0.768   2.406  0.00  0.00    +0.140 A 
ENDROOT
BRANCH   1  15
ATOM     14  C   LIG    1       -0.019   1.526   0.010  0.00  0.00    +0.020 C 
ATOM     15  C   LIG    1        0.002  -0.004   0.002  0.00  0.00    +0.290 C 
ENDBRANCH   1  15
TORSDOF 1
ENDMDL
MODEL      796
REMARK  Name = ZINC000019907832
REMARK                            x       y       z     vdW  Elec       q    Type
REMARK                         _______ _______ _______ _____ _____    ______ ____
ROOT
ATOM      1  C   LIG    1        2.815   0.676   2.013  0.00  0.00    +0.220 A 
ATOM      2  C   LIG    1        2.119   1.087   3.141  0.00  0.00    -0.080 A 
ATOM      3  C   LIG    1        2.770   1.806   4.129  0.00  0.00    +0.140 A 
ATOM      4  C   LIG    1        4.113   2.113   3.992  0.00  0.00    -0.050 A 
ATOM      5  C   LIG    1        4.808   1.705   2.869  0.00  0.00    +0.070 A 
ATOM      6  F   LIG    1        2.094   2.207   5.228  0.00  0.00    -0.130 F 
ATOM      7  C   LIG    1        4.165   0.982   1.881  0.00  0.00    +0.010 A 
ATOM      8  F   LIG    1        4.845   0.584   0.784  0.00  0.00    -0.140 F 
ENDROOT
BRANCH   1   9
ATOM      9  N   LIG    1        2.160  -0.051   1.013  0.00  0.00    -0.730 N 
ATOM     10  H   LIG    1        2.622  -0.263   0.187  0.00  0.00    +0.410 HD
BRANCH   9  11
ATOM     11  C   LIG    1        0.777  -0.490   1.213  0.00  0.00    +0.230 C 
BRANCH  11  13
ATOM     12  C   LIG    1       -0.143   1.544   0.091  0.00  0.00    +0.020 C 
ATOM     13  C   LIG    1       -0.091   0.015   0.059  0.00  0.00    +0.010 C 
ENDBRANCH  11  13
BRANCH  11  14
ATOM     14  C   LIG    1        0.729  -2.019   1.256  0.00  0.00    +0.010 C 
ATOM     15  C   LIG    1        1.486  -2.518   2.489  0.00  0.00    +0.020 C 
ENDBRANCH  11  14
ENDBRANCH   9  11
ENDBRANCH   1   9
TORSDOF 4
ENDMDL
MODEL      797
REMARK  Name = ZINC000020471752
REMARK                            x       y       z     vdW  Elec       q    Type
REMARK                         _______ _______ _______ _____ _____    ______ ____
ROOT
ATOM      1  C   LIG    1       -3.376   0.013   1.505  0.00  0.00    +0.200 A 
ATOM      2  C   LIG    1       -4.227  -0.275   0.447  0.00  0.00    -0.050 A 
ATOM      3  C   LIG    1       -5.596  -0.234   0.632  0.00  0.00    -0.050 A 
ATOM      4  C   LIG    1       -6.119   0.092   1.870  0.00  0.00    -0.020 A 
ATOM      5  C   LIG    1       -5.275   0.380   2.927  0.00  0.00    +0.030 A 
ATOM      6  C   LIG    1       -6.520  -0.546  -0.516  0.00  0.00    +0.090 C 
ATOM      7  C   LIG    1       -3.905   0.336   2.751  0.00  0.00    +0.010 A 
ATOM      8  F   LIG    1       -3.080   0.616   3.783  0.00  0.00    -0.150 F 
ENDROOT
BRANCH   1   9
ATOM      9  N   LIG    1       -1.990  -0.029   1.321  0.00  0.00    -0.730 N 
ATOM     10  H   LIG    1       -1.398   0.256   2.034  0.00  0.00    +0.400 HD
BRANCH   9  11
ATOM     11  C   LIG    1       -1.434  -0.500   0.050  0.00  0.00    +0.240 C 
BRANCH  11  13
ATOM     12  C   LIG    1       -1.311   1.816  -0.878  0.00  0.00    +0.010 C 
ATOM     13  C   LIG    1       -0.501   0.567  -0.526  0.00  0.00    +0.000 C 
ENDBRANCH  11  13
BRANCH  11  14
ATOM     14  C   LIG    1       -0.648  -1.792   0.286  0.00  0.00    -0.010 C 
ATOM     15  C   LIG    1       -1.606  -2.897   0.734  0.00  0.00    +0.010 C 
ENDBRANCH  11  14
ENDBRANCH   9  11
ENDBRANCH   1   9
TORSDOF 4
ENDMDL
MODEL      798
REMARK  Name = ZINC000019953425
REMARK                            x       y       z     vdW  Elec       q    Type
REMARK                         _______ _______ _______ _____ _____    ______ ____
ROOT
ATOM      1  C   LIG    1        0.113   1.153  -3.004  0.00  0.00    +0.250 A 
ATOM      2  C   LIG    1        1.016   2.048  -2.446  0.00  0.00    -0.090 A 
ATOM      3  C   LIG    1        1.180   3.302  -3.007  0.00  0.00    +0.140 A 
ATOM      4  C   LIG    1        0.444   3.664  -4.123  0.00  0.00    -0.080 A 
ATOM      5  C   LIG    1       -0.456   2.773  -4.679  0.00  0.00    +0.080 A 
ATOM      6  F   LIG    1        2.058   4.174  -2.466  0.00  0.00    -0.140 F 
ATOM      7  C   LIG    1       -0.620   1.518  -4.127  0.00  0.00    -0.180 A 
ATOM      8  C   LIG    1       -1.601   0.549  -4.734  0.00  0.00    +0.100 C 
ENDROOT
BRANCH   1   9
ATOM      9  N   LIG    1       -0.055  -0.114  -2.441  0.00  0.00    -0.730 N 
ATOM     10  H   LIG    1       -0.683  -0.740  -2.833  0.00  0.00    +0.400 HD
BRANCH   9  11
ATOM     11  C   LIG    1        0.718  -0.497  -1.257  0.00  0.00    +0.230 C 
BRANCH  11  13
ATOM     12  C   LIG    1       -0.019   1.526   0.010  0.00  0.00    +0.010 C 
ATOM     13  C   LIG    1        0.002  -0.004   0.002  0.00  0.00    +0.000 C 
ENDBRANCH  11  13
BRANCH  11  14
ATOM     14  C   LIG    1        0.849  -2.021  -1.205  0.00  0.00    +0.020 C 
ATOM     15  C   LIG    1        1.673  -2.503  -2.400  0.00  0.00    +0.030 C 
ENDBRANCH  11  14
ENDBRANCH   9  11
ENDBRANCH   1   9
TORSDOF 4
ENDMDL
MODEL      799
REMARK  Name = ZINC000019961873
REMARK                            x       y       z     vdW  Elec       q    Type
REMARK                         _______ _______ _______ _____ _____    ______ ____
ROOT
ATOM      1  C   LIG    1        0.113   1.153  -3.004  0.00  0.00    +0.280 A 
ATOM      2  C   LIG    1        1.017   2.048  -2.446  0.00  0.00    -0.100 A 
ATOM      3  C   LIG    1        1.182   3.302  -3.006  0.00  0.00    +0.170 A 
ATOM      4  C   LIG    1        0.447   3.666  -4.122  0.00  0.00    -0.110 A 
ATOM      5  C   LIG    1       -0.455   2.775  -4.680  0.00  0.00    +0.180 A 
ATOM      6  F   LIG    1       -1.170   3.132  -5.769  0.00  0.00    -0.130 F 
ATOM      7  F   LIG    1        2.061   4.173  -2.463  0.00  0.00    -0.130 F 
ATOM      8  C   LIG    1       -0.620   1.518  -4.126  0.00  0.00    -0.110 A 
ENDROOT
BRANCH   1   9
ATOM      9  N   LIG    1       -0.055  -0.114  -2.441  0.00  0.00    -0.730 N 
ATOM     10  H   LIG    1       -0.683  -0.740  -2.833  0.00  0.00    +0.400 HD
BRANCH   9  11
ATOM     11  C   LIG    1        0.718  -0.497  -1.257  0.00  0.00    +0.230 C 
BRANCH  11  13
ATOM     12  C   LIG    1       -0.019   1.526   0.010  0.00  0.00    +0.010 C 
ATOM     13  C   LIG    1        0.002  -0.004   0.002  0.00  0.00    +0.000 C 
ENDBRANCH  11  13
BRANCH  11  14
ATOM     14  C   LIG    1        0.849  -2.021  -1.205  0.00  0.00    +0.020 C 
ATOM     15  C   LIG    1        1.673  -2.503  -2.400  0.00  0.00    +0.030 C 
ENDBRANCH  11  14
ENDBRANCH   9  11
ENDBRANCH   1   9
TORSDOF 4
ENDMDL
MODEL      800
REMARK  Name = ZINC000020371943
REMARK                            x       y       z     vdW  Elec       q    Type
REMARK                         _______ _______ _______ _____ _____    ______ ____
ROOT
ATOM      1  C   LIG    1        0.388   0.092  -3.674  0.00  0.00    +0.190 A 
ATOM      2  C   LIG    1        1.734  -0.170  -3.888  0.00  0.00    -0.040 A 
ATOM      3  C   LIG    1        2.257  -0.095  -5.165  0.00  0.00    +0.050 A 
ATOM      4  C   LIG    1        1.442   0.240  -6.229  0.00  0.00    -0.120 A 
ATOM      5  C   LIG    1        0.100   0.502  -6.022  0.00  0.00    +0.020 A 
ATOM      6  C   LIG    1        2.017   0.321  -7.620  0.00  0.00    +0.090 C 
ATOM      7  C   LIG    1       -0.431   0.424  -4.748  0.00  0.00    +0.020 A 
ATOM      8  F   LIG    1       -1.742   0.679  -4.545  0.00  0.00    -0.140 F 
ENDROOT
BRANCH   1   9
ATOM      9  N   LIG    1       -0.144   0.017  -2.383  0.00  0.00    -0.730 N 
ATOM     10  H   LIG    1       -1.062   0.283  -2.221  0.00  0.00    +0.400 HD
BRANCH   9  11
ATOM     11  C   LIG    1        0.686  -0.464  -1.276  0.00  0.00    +0.240 C 
BRANCH  11  13
ATOM     12  C   LIG    1        1.392   1.852  -0.659  0.00  0.00    +0.010 C 
ATOM     13  C   LIG    1        0.702   0.581  -0.158  0.00  0.00    +0.000 C 
ENDBRANCH  11  13
BRANCH  11  14
ATOM     14  C   LIG    1        0.109  -1.776  -0.739  0.00  0.00    -0.010 C 
ATOM     15  C   LIG    1        0.217  -2.859  -1.814  0.00  0.00    +0.010 C 
ENDBRANCH  11  14
ENDBRANCH   9  11
ENDBRANCH   1   9
TORSDOF 4
ENDMDL
MODEL      801
REMARK  Name = ZINC000002514134
REMARK                            x       y       z     vdW  Elec       q    Type
REMARK                         _______ _______ _______ _____ _____    ______ ____
ROOT
ATOM      1  C   LIG    1       -0.018   1.503   0.010  0.00  0.00    +0.100 C 
ATOM      2  C   LIG    1        0.002  -0.004   0.002  0.00  0.00    -0.050 A 
ATOM      3  C   LIG    1        0.006  -0.686  -1.202  0.00  0.00    +0.000 A 
ATOM      4  C   LIG    1        0.024  -2.064  -1.218  0.00  0.00    +0.070 A 
ATOM      5  C   LIG    1        0.039  -2.774  -0.013  0.00  0.00    -0.180 A 
ATOM      6  C   LIG    1        0.036  -2.078   1.200  0.00  0.00    +0.060 A 
ATOM      7  C   LIG    1        0.023  -0.699   1.199  0.00  0.00    -0.010 A 
ENDROOT
BRANCH   5   8
ATOM      8  C   LIG    1        0.059  -4.245  -0.021  0.00  0.00    +0.400 C 
ATOM      9  O   LIG    1        0.062  -4.846  -1.075  0.00  0.00    -0.440 OA
BRANCH   8  10
ATOM     10  C   LIG    1        0.076  -5.006   1.280  0.00  0.00    +0.040 C 
BRANCH  10  11
ATOM     11  C   LIG    1        0.095  -6.508   0.992  0.00  0.00    -0.060 C 
ATOM     12  C   LIG    1       -1.153  -6.891   0.193  0.00  0.00    +0.030 C 
ATOM     13  C   LIG    1        0.111  -7.281   2.312  0.00  0.00    +0.040 C 
ATOM     14  C   LIG    1        1.345  -6.857   0.181  0.00  0.00    +0.030 C 
ENDBRANCH  10  11
ENDBRANCH   8  10
ENDBRANCH   5   8
TORSDOF 3
ENDMDL
MODEL      802
REMARK  Name = ZINC000001638530
REMARK                            x       y       z     vdW  Elec       q    Type
REMARK                         _______ _______ _______ _____ _____    ______ ____
ROOT
ATOM      1  C   LIG    1        0.632  -2.000  -1.327  0.00  0.00    -0.070 A 
ATOM      2  C   LIG    1        1.163  -2.772  -0.311  0.00  0.00    +0.000 A 
ATOM      3  C   LIG    1        1.084  -4.150  -0.376  0.00  0.00    +0.000 A 
ATOM      4  C   LIG    1        0.472  -4.757  -1.457  0.00  0.00    -0.010 A 
ATOM      5  C   LIG    1       -0.060  -3.986  -2.473  0.00  0.00    +0.000 A 
ATOM      6  C   LIG    1        0.016  -2.607  -2.406  0.00  0.00    +0.000 A 
ENDROOT
BRANCH   1   7
ATOM      7  C   LIG    1        0.718  -0.497  -1.257  0.00  0.00    +0.030 C 
BRANCH   7   9
ATOM      8  C   LIG    1       -0.019   1.526   0.010  0.00  0.00    +0.000 C 
ATOM      9  C   LIG    1        0.002  -0.004   0.002  0.00  0.00    +0.000 C 
ENDBRANCH   7   9
BRANCH   7  10
ATOM     10  C   LIG    1        2.187  -0.073  -1.207  0.00  0.00    +0.010 C 
ATOM     11  C   LIG    1        2.874  -0.457  -2.520  0.00  0.00    +0.010 C 
ENDBRANCH   7  10
ENDBRANCH   1   7
TORSDOF 3
ENDMDL
MODEL      803
REMARK  Name = ZINC000002556409
REMARK                            x       y       z     vdW  Elec       q    Type
REMARK                         _______ _______ _______ _____ _____    ______ ____
ROOT
ATOM      1  C   LIG    1       -0.018   1.503   0.010  0.00  0.00    +0.120 C 
ATOM      2  C   LIG    1        0.002  -0.004   0.002  0.00  0.00    -0.040 A 
ATOM      3  C   LIG    1        0.006  -0.688  -1.199  0.00  0.00    +0.020 A 
ATOM      4  C   LIG    1        0.025  -2.071  -1.207  0.00  0.00    +0.090 A 
ATOM      5  C   LIG    1        0.040  -2.769  -0.015  0.00  0.00    -0.190 A 
ATOM      6  C   LIG    1        0.036  -2.085   1.188  0.00  0.00    +0.010 A 
ATOM      7 CL   LIG    1        0.056  -2.961   2.686  0.00  0.00    -0.040 Cl
ATOM      8  C   LIG    1        0.023  -0.702   1.195  0.00  0.00    +0.040 A 
ENDROOT
BRANCH   5   9
ATOM      9  C   LIG    1        0.061  -4.276  -0.024  0.00  0.00    +0.510 C 
ATOM     10  F   LIG    1       -1.072  -4.762   0.637  0.00  0.00    -0.170 F 
ATOM     11  F   LIG    1        1.213  -4.731   0.627  0.00  0.00    -0.170 F 
ATOM     12  F   LIG    1        0.061  -4.734  -1.346  0.00  0.00    -0.170 F 
ENDBRANCH   5   9
TORSDOF 1
ENDMDL
MODEL      804
REMARK  Name = ZINC000002390942
REMARK                            x       y       z     vdW  Elec       q    Type
REMARK                         _______ _______ _______ _____ _____    ______ ____
ROOT
ATOM      1  C   LIG    1       -0.018   1.503   0.010  0.00  0.00    +0.080 C 
ATOM      2  C   LIG    1        0.002  -0.004   0.002  0.00  0.00    -0.090 A 
ATOM      3  C   LIG    1        0.006  -0.689  -1.199  0.00  0.00    +0.000 A 
ATOM      4  C   LIG    1        0.025  -2.071  -1.206  0.00  0.00    +0.010 A 
ATOM      5  C   LIG    1        0.040  -2.768  -0.013  0.00  0.00    -0.070 A 
ATOM      6  C   LIG    1        0.038  -2.084   1.188  0.00  0.00    +0.010 A 
ATOM      7  C   LIG    1        0.023  -0.702   1.196  0.00  0.00    -0.090 A 
ATOM      8  C   LIG    1        0.020   0.045   2.505  0.00  0.00    +0.080 C 
ENDROOT
BRANCH   5   9
ATOM      9  C   LIG    1        0.060  -4.275  -0.021  0.00  0.00    -0.030 C 
ATOM     10  C   LIG    1       -1.179  -4.806   0.704  0.00  0.00    +0.040 C 
ATOM     11  C   LIG    1        1.320  -4.773   0.690  0.00  0.00    +0.040 C 
ATOM     12  C   LIG    1        0.059  -4.777  -1.467  0.00  0.00    +0.040 C 
ENDBRANCH   5   9
TORSDOF 1
ENDMDL
MODEL      805
REMARK  Name = ZINC000019964634
REMARK                            x       y       z     vdW  Elec       q    Type
REMARK                         _______ _______ _______ _____ _____    ______ ____
ROOT
ATOM      1  C   LIG    1       -0.018   1.503   0.010  0.00  0.00    +0.080 C 
ATOM      2  C   LIG    1        0.002  -0.004   0.002  0.00  0.00    -0.040 A 
ATOM      3  C   LIG    1        0.006  -0.688  -1.200  0.00  0.00    -0.060 A 
ATOM      4  C   LIG    1        0.025  -2.071  -1.212  0.00  0.00    +0.050 A 
ATOM      5  C   LIG    1        0.040  -2.773  -0.023  0.00  0.00    -0.170 A 
ATOM      6  C   LIG    1        0.036  -2.089   1.186  0.00  0.00    +0.220 A 
ATOM      7  C   LIG    1        0.061  -4.280  -0.037  0.00  0.00    +0.090 C 
ATOM      8  C   LIG    1        0.023  -0.700   1.195  0.00  0.00    -0.080 A 
ENDROOT
BRANCH   6   9
ATOM      9  N   LIG    1        0.052  -2.796   2.391  0.00  0.00    -0.740 N 
ATOM     10  H   LIG    1        0.066  -3.766   2.383  0.00  0.00    +0.400 HD
BRANCH   9  11
ATOM     11  C   LIG    1        0.048  -2.073   3.665  0.00  0.00    +0.230 C 
ATOM     12  C   LIG    1       -1.392  -1.732   4.053  0.00  0.00    +0.020 C 
BRANCH  11  13
ATOM     13  C   LIG    1        0.675  -2.950   4.751  0.00  0.00    -0.030 C 
ATOM     14  C   LIG    1        0.671  -2.195   6.081  0.00  0.00    +0.030 C 
ATOM     15  C   LIG    1        2.115  -3.291   4.362  0.00  0.00    +0.030 C 
ENDBRANCH  11  13
ENDBRANCH   9  11
ENDBRANCH   6   9
TORSDOF 3
ENDMDL
MODEL      806
REMARK  Name = ZINC000001867846
REMARK                            x       y       z     vdW  Elec       q    Type
REMARK                         _______ _______ _______ _____ _____    ______ ____
ROOT
ATOM      1  C   LIG    1       -0.018   1.503   0.010  0.00  0.00    +0.090 C 
ATOM      2  C   LIG    1        0.002  -0.004   0.002  0.00  0.00    -0.120 A 
ATOM      3  C   LIG    1        0.006  -0.686  -1.195  0.00  0.00    +0.050 A 
ATOM      4  C   LIG    1        0.024  -2.072  -1.217  0.00  0.00    -0.020 A 
ATOM      5  C   LIG    1        0.039  -2.785  -0.038  0.00  0.00    -0.030 A 
ATOM      6  C   LIG    1        0.036  -2.108   1.180  0.00  0.00    -0.100 A 
ATOM      7  C   LIG    1        0.048  -2.550   2.587  0.00  0.00    -0.100 A 
ATOM      8  C   LIG    1        0.062  -3.802   3.198  0.00  0.00    +0.060 A 
ATOM      9  C   LIG    1        0.063  -3.892   4.573  0.00  0.00    -0.020 A 
ATOM     10  C   LIG    1        0.050  -2.743   5.349  0.00  0.00    +0.050 A 
ATOM     11  C   LIG    1        0.040  -1.498   4.757  0.00  0.00    -0.020 A 
ATOM     12  C   LIG    1        0.035  -1.387   3.369  0.00  0.00    +0.140 A 
ATOM     13  N   LIG    1        0.023  -0.292   2.524  0.00  0.00    -0.620 N 
ATOM     14  H   LIG    1        0.015   0.633   2.814  0.00  0.00    +0.420 HD
ATOM     15  C   LIG    1        0.059  -4.292  -0.065  0.00  0.00    +0.090 C 
ATOM     16  C   LIG    1        0.023  -0.706   1.204  0.00  0.00    +0.150 A 
ENDROOT
TORSDOF 0
ENDMDL
MODEL      807
REMARK  Name = ZINC000037375595
REMARK                            x       y       z     vdW  Elec       q    Type
REMARK                         _______ _______ _______ _____ _____    ______ ____
ROOT
ATOM      1  C   LIG    1        0.739  -2.027  -1.265  0.00  0.00    -0.010 C 
ATOM      2  C   LIG    1       -0.696  -2.557  -1.254  0.00  0.00    +0.020 C 
ATOM      3  C   LIG    1       -0.676  -4.087  -1.263  0.00  0.00    +0.030 C 
ATOM      4  C   LIG    1        0.041  -4.580  -2.522  0.00  0.00    +0.130 C 
ATOM      5  C   LIG    1        1.476  -4.051  -2.532  0.00  0.00    -0.010 C 
ATOM      6  C   LIG    1        1.455  -2.521  -2.524  0.00  0.00    +0.020 C 
ENDROOT
BRANCH   1   7
ATOM      7  C   LIG    1        0.718  -0.497  -1.257  0.00  0.00    -0.060 C 
ATOM      8  C   LIG    1        2.154   0.032  -1.268  0.00  0.00    +0.020 C 
ATOM      9  C   LIG    1       -0.022   0.009  -2.496  0.00  0.00    +0.030 C 
BRANCH   7  11
ATOM     10  C   LIG    1       -0.019   1.526   0.010  0.00  0.00    +0.010 C 
ATOM     11  C   LIG    1        0.002  -0.004   0.002  0.00  0.00    +0.000 C 
ENDBRANCH   7  11
ENDBRANCH   1   7
BRANCH   4  12
ATOM     12  C   LIG    1       -0.700  -4.073  -3.761  0.00  0.00    +0.000 C 
ATOM     13  C   LIG    1        0.017  -4.567  -5.020  0.00  0.00    +0.010 C 
ENDBRANCH   4  12
BRANCH   4  14
ATOM     14  O   LIG    1        0.060  -6.009  -2.529  0.00  0.00    -0.560 OA
ATOM     15  H   LIG    1        0.499  -6.392  -3.301  0.00  0.00    +0.370 HD
ENDBRANCH   4  14
TORSDOF 4
ENDMDL
MODEL      808
REMARK  Name = ZINC000068564789
REMARK                            x       y       z     vdW  Elec       q    Type
REMARK                         _______ _______ _______ _____ _____    ______ ____
ROOT
ATOM      1  C   LIG    1        0.048   1.503   0.004  0.00  0.00    +0.090 C 
ATOM      2  C   LIG    1        0.052  -0.004  -0.003  0.00  0.00    -0.090 A 
ATOM      3  C   LIG    1       -0.002  -0.698   1.193  0.00  0.00    +0.000 A 
ATOM      4  C   LIG    1        0.001  -2.077   1.194  0.00  0.00    +0.010 A 
ATOM      5  C   LIG    1        0.059  -2.773  -0.015  0.00  0.00    -0.050 A 
ATOM      6  C   LIG    1        0.112  -2.067  -1.217  0.00  0.00    +0.010 A 
ATOM      7  C   LIG    1        0.103  -0.687  -1.205  0.00  0.00    +0.000 A 
ENDROOT
BRANCH   5   8
ATOM      8  C   LIG    1        0.062  -4.251  -0.021  0.00  0.00    +0.000 C 
ATOM      9  C   LIG    1        0.176  -4.918   1.118  0.00  0.00    -0.110 C 
ATOM     10  C   LIG    1        0.183  -4.323   2.511  0.00  0.00    +0.060 C 
ATOM     11  C   LIG    1        0.347  -5.496   3.498  0.00  0.00    +0.010 C 
ATOM     12  C   LIG    1        1.013  -6.605   2.645  0.00  0.00    +0.020 C 
ATOM     13  C   LIG    1        0.320  -6.422   1.269  0.00  0.00    +0.050 C 
ENDBRANCH   5   8
TORSDOF 1
ENDMDL
MODEL      809
REMARK  Name = ZINC000071241975
REMARK                            x       y       z     vdW  Elec       q    Type
REMARK                         _______ _______ _______ _____ _____    ______ ____
ROOT
ATOM      1  C   LIG    1        0.707  -0.490  -1.238  0.00  0.00    -0.110 C 
ATOM      2  C   LIG    1        1.983  -0.824  -1.322  0.00  0.00    +0.000 C 
ATOM      3  C   LIG    1        2.329  -1.255  -2.689  0.00  0.00    -0.060 A 
ATOM      4  C   LIG    1        3.530  -1.692  -3.254  0.00  0.00    +0.030 A 
ATOM      5  C   LIG    1        3.576  -2.041  -4.588  0.00  0.00    +0.030 A 
ATOM      6  C   LIG    1        2.439  -1.961  -5.372  0.00  0.00    +0.030 A 
ATOM      7  C   LIG    1        1.243  -1.528  -4.820  0.00  0.00    -0.010 A 
ATOM      8 CL   LIG    1       -0.183  -1.428  -5.805  0.00  0.00    -0.070 Cl
ATOM      9  C   LIG    1        1.188  -1.178  -3.490  0.00  0.00    -0.100 A 
ATOM     10  C   LIG    1        0.076  -0.686  -2.596  0.00  0.00    +0.140 C 
ENDROOT
BRANCH   1  12
ATOM     11  C   LIG    1       -0.019   1.526   0.010  0.00  0.00    +0.030 C 
ATOM     12  C   LIG    1        0.002  -0.004   0.002  0.00  0.00    +0.090 C 
ENDBRANCH   1  12
TORSDOF 1
ENDMDL
MODEL      810
REMARK  Name = ZINC000002165810
REMARK                            x       y       z     vdW  Elec       q    Type
REMARK                         _______ _______ _______ _____ _____    ______ ____
ROOT
ATOM      1  C   LIG    1        0.060  -4.275  -0.021  0.00  0.00    +0.240 C 
ENDROOT
BRANCH   1   6
ATOM      2  C   LIG    1       -0.018   1.503   0.010  0.00  0.00    +0.090 C 
ATOM      3  C   LIG    1        0.002  -0.004   0.002  0.00  0.00    -0.070 A 
ATOM      4  C   LIG    1        0.006  -0.689  -1.199  0.00  0.00    +0.010 A 
ATOM      5  C   LIG    1        0.025  -2.071  -1.206  0.00  0.00    +0.030 A 
ATOM      6  C   LIG    1        0.040  -2.768  -0.013  0.00  0.00    -0.110 A 
ATOM      7  C   LIG    1        0.038  -2.084   1.188  0.00  0.00    +0.030 A 
ATOM      8  C   LIG    1        0.023  -0.702   1.195  0.00  0.00    +0.010 A 
ENDBRANCH   1   6
BRANCH   1   9
ATOM      9  O   LIG    1        1.413  -4.734  -0.031  0.00  0.00    -0.310 OA
BRANCH   9  10
ATOM     10  C   LIG    1        1.609  -6.079  -0.040  0.00  0.00    +0.130 A 
ATOM     11  C   LIG    1        0.521  -6.939  -0.044  0.00  0.00    -0.080 A 
ATOM     12  C   LIG    1        0.723  -8.306  -0.053  0.00  0.00    +0.050 A 
ATOM     13  C   LIG    1        2.008  -8.816  -0.057  0.00  0.00    -0.040 A 
ATOM     14  C   LIG    1        3.094  -7.960  -0.052  0.00  0.00    +0.050 A 
ATOM     15  C   LIG    1        2.898  -6.593  -0.049  0.00  0.00    -0.020 A 
ENDBRANCH   9  10
ENDBRANCH   1   9
TORSDOF 3
ENDMDL
MODEL      811
REMARK  Name = ZINC000001606288
REMARK                            x       y       z     vdW  Elec       q    Type
REMARK                         _______ _______ _______ _____ _____    ______ ____
ROOT
ATOM      1  C   LIG    1        0.060  -4.275  -0.021  0.00  0.00    +0.310 C 
ENDROOT
BRANCH   1   6
ATOM      2  C   LIG    1       -0.018   1.503   0.010  0.00  0.00    +0.090 C 
ATOM      3  C   LIG    1        0.002  -0.004   0.002  0.00  0.00    -0.080 A 
ATOM      4  C   LIG    1        0.006  -0.689  -1.199  0.00  0.00    +0.000 A 
ATOM      5  C   LIG    1        0.025  -2.071  -1.206  0.00  0.00    +0.020 A 
ATOM      6  C   LIG    1        0.040  -2.768  -0.013  0.00  0.00    -0.120 A 
ATOM      7  C   LIG    1        0.038  -2.084   1.188  0.00  0.00    +0.020 A 
ATOM      8  C   LIG    1        0.023  -0.702   1.195  0.00  0.00    +0.000 A 
ENDBRANCH   1   6
BRANCH   1   9
ATOM      9  N   LIG    1        1.448  -4.745  -0.032  0.00  0.00    -0.750 N 
ATOM     10  H   LIG    1        2.176  -4.105  -0.032  0.00  0.00    +0.400 HD
BRANCH   9  11
ATOM     11  C   LIG    1        1.721  -6.115  -0.040  0.00  0.00    +0.210 A 
ATOM     12  C   LIG    1        0.678  -7.033  -0.046  0.00  0.00    -0.080 A 
ATOM     13  C   LIG    1        0.952  -8.386  -0.055  0.00  0.00    +0.050 A 
ATOM     14  C   LIG    1        2.262  -8.828  -0.059  0.00  0.00    -0.060 A 
ATOM     15  C   LIG    1        3.303  -7.917  -0.053  0.00  0.00    +0.050 A 
ATOM     16  C   LIG    1        3.036  -6.562  -0.050  0.00  0.00    -0.080 A 
ENDBRANCH   9  11
ENDBRANCH   1   9
TORSDOF 3
ENDMDL
MODEL      812
REMARK  Name = ZINC000001674257
REMARK                            x       y       z     vdW  Elec       q    Type
REMARK                         _______ _______ _______ _____ _____    ______ ____
ROOT
ATOM      1  C   LIG    1       -0.018   1.503   0.010  0.00  0.00    +0.090 C 
ATOM      2  C   LIG    1        0.002  -0.004   0.002  0.00  0.00    -0.090 A 
ATOM      3  C   LIG    1        0.006  -0.689  -1.199  0.00  0.00    +0.000 A 
ATOM      4  C   LIG    1        0.025  -2.071  -1.206  0.00  0.00    +0.010 A 
ATOM      5  C   LIG    1        0.040  -2.768  -0.013  0.00  0.00    -0.080 A 
ATOM      6  C   LIG    1        0.038  -2.084   1.188  0.00  0.00    +0.010 A 
ATOM      7  C   LIG    1        0.023  -0.702   1.195  0.00  0.00    +0.000 A 
ENDROOT
BRANCH   5   8
ATOM      8  C   LIG    1        0.060  -4.275  -0.021  0.00  0.00    +0.120 C 
BRANCH   8   9
ATOM      9  C   LIG    1        1.487  -4.759  -0.032  0.00  0.00    -0.080 A 
ATOM     10  C   LIG    1        2.137  -4.969  -1.234  0.00  0.00    +0.000 A 
ATOM     11  C   LIG    1        3.447  -5.412  -1.243  0.00  0.00    +0.000 A 
ATOM     12  C   LIG    1        4.106  -5.645  -0.051  0.00  0.00    +0.000 A 
ATOM     13  C   LIG    1        3.456  -5.434   1.151  0.00  0.00    +0.000 A 
ATOM     14  C   LIG    1        2.148  -4.987   1.161  0.00  0.00    +0.000 A 
ENDBRANCH   8   9
ENDBRANCH   5   8
TORSDOF 2
ENDMDL
MODEL      813
REMARK  Name = ZINC000019953518
REMARK                            x       y       z     vdW  Elec       q    Type
REMARK                         _______ _______ _______ _____ _____    ______ ____
ROOT
ATOM      1  C   LIG    1       -0.018   1.503   0.010  0.00  0.00    +0.100 C 
ATOM      2  C   LIG    1        0.002  -0.004   0.002  0.00  0.00    -0.170 A 
ATOM      3  C   LIG    1        0.006  -0.688  -1.198  0.00  0.00    +0.090 A 
ATOM      4  C   LIG    1        0.024  -2.071  -1.207  0.00  0.00    -0.080 A 
ATOM      5  C   LIG    1        0.039  -2.774  -0.014  0.00  0.00    +0.140 A 
ATOM      6  C   LIG    1        0.036  -2.094   1.190  0.00  0.00    -0.110 A 
ATOM      7  F   LIG    1        0.056  -4.125  -0.027  0.00  0.00    -0.140 F 
ATOM      8  C   LIG    1        0.023  -0.706   1.201  0.00  0.00    +0.250 A 
ENDROOT
BRANCH   8   9
ATOM      9  N   LIG    1        0.021  -0.015   2.416  0.00  0.00    -0.730 N 
ATOM     10  H   LIG    1        0.012   0.955   2.422  0.00  0.00    +0.400 HD
BRANCH   9  11
ATOM     11  C   LIG    1        0.032  -0.756   3.679  0.00  0.00    +0.230 C 
ATOM     12  C   LIG    1       -1.400  -1.136   4.061  0.00  0.00    +0.020 C 
BRANCH  11  13
ATOM     13  C   LIG    1        0.637   0.119   4.778  0.00  0.00    -0.030 C 
ATOM     14  C   LIG    1        2.070   0.499   4.397  0.00  0.00    +0.030 C 
ATOM     15  C   LIG    1        0.649  -0.655   6.098  0.00  0.00    +0.030 C 
ENDBRANCH  11  13
ENDBRANCH   9  11
ENDBRANCH   8   9
TORSDOF 3
ENDMDL
MODEL      814
REMARK  Name = ZINC000041051124
REMARK                            x       y       z     vdW  Elec       q    Type
REMARK                         _______ _______ _______ _____ _____    ______ ____
ROOT
ATOM      1  C   LIG    1       -0.018   1.503   0.010  0.00  0.00    +0.100 C 
ATOM      2  C   LIG    1        0.002  -0.004   0.002  0.00  0.00    -0.170 A 
ATOM      3  C   LIG    1        0.006  -0.688  -1.198  0.00  0.00    +0.090 A 
ATOM      4  C   LIG    1        0.024  -2.071  -1.207  0.00  0.00    -0.080 A 
ATOM      5  C   LIG    1        0.039  -2.774  -0.014  0.00  0.00    +0.140 A 
ATOM      6  C   LIG    1        0.036  -2.094   1.190  0.00  0.00    -0.100 A 
ATOM      7  F   LIG    1        0.056  -4.125  -0.027  0.00  0.00    -0.140 F 
ATOM      8  C   LIG    1        0.023  -0.706   1.201  0.00  0.00    +0.250 A 
ENDROOT
BRANCH   8   9
ATOM      9  N   LIG    1        0.021  -0.015   2.416  0.00  0.00    -0.740 N 
ATOM     10  H   LIG    1        0.012   0.955   2.422  0.00  0.00    +0.400 HD
BRANCH   9  11
ATOM     11  C   LIG    1        0.032  -0.756   3.679  0.00  0.00    +0.250 C 
BRANCH  11  12
ATOM     12  C   LIG    1        0.027   0.230   4.849  0.00  0.00    -0.080 C 
ATOM     13  C   LIG    1        1.268   1.122   4.769  0.00  0.00    +0.030 C 
ATOM     14  C   LIG    1        0.039  -0.544   6.169  0.00  0.00    +0.040 C 
ATOM     15  C   LIG    1       -1.231   1.098   4.778  0.00  0.00    +0.030 C 
ENDBRANCH  11  12
ENDBRANCH   9  11
ENDBRANCH   8   9
TORSDOF 3
ENDMDL
MODEL      815
REMARK  Name = ZINC000041051112
REMARK                            x       y       z     vdW  Elec       q    Type
REMARK                         _______ _______ _______ _____ _____    ______ ____
ROOT
ATOM      1  C   LIG    1       -0.018   1.503   0.010  0.00  0.00    +0.080 C 
ATOM      2  C   LIG    1        0.002  -0.004   0.002  0.00  0.00    -0.150 A 
ATOM      3  C   LIG    1        0.006  -0.687  -1.200  0.00  0.00    +0.050 A 
ATOM      4  C   LIG    1        0.025  -2.068  -1.211  0.00  0.00    -0.080 A 
ATOM      5  C   LIG    1        0.041  -2.771  -0.013  0.00  0.00    +0.220 A 
ATOM      6  C   LIG    1        0.037  -2.081   1.193  0.00  0.00    -0.080 A 
ATOM      7  C   LIG    1        0.023  -0.700   1.197  0.00  0.00    -0.040 A 
ATOM      8  C   LIG    1        0.019   0.049   2.505  0.00  0.00    +0.080 C 
ENDROOT
BRANCH   5   9
ATOM      9  N   LIG    1        0.060  -4.167  -0.021  0.00  0.00    -0.750 N 
ATOM     10  H   LIG    1        0.071  -4.657   0.817  0.00  0.00    +0.400 HD
BRANCH   9  11
ATOM     11  C   LIG    1        0.065  -4.893  -1.294  0.00  0.00    +0.260 C 
BRANCH  11  12
ATOM     12  C   LIG    1        0.087  -6.398  -1.022  0.00  0.00    -0.080 C 
ATOM     13  C   LIG    1        1.346  -6.755  -0.228  0.00  0.00    +0.030 C 
ATOM     14  C   LIG    1        0.092  -7.156  -2.352  0.00  0.00    +0.040 C 
ATOM     15  C   LIG    1       -1.153  -6.790  -0.216  0.00  0.00    +0.030 C 
ENDBRANCH  11  12
ENDBRANCH   9  11
ENDBRANCH   5   9
TORSDOF 3
ENDMDL
MODEL      816
REMARK  Name = ZINC000000968704
REMARK                            x       y       z     vdW  Elec       q    Type
REMARK                         _______ _______ _______ _____ _____    ______ ____
ROOT
ATOM      1  N   LIG    1        0.060  -4.168  -0.021  0.00  0.00    -0.690 N 
ATOM      2  H   LIG    1       -0.320  -4.662   0.722  0.00  0.00    +0.410 HD
ENDROOT
BRANCH   1   7
ATOM      3  C   LIG    1        0.192   1.500   0.110  0.00  0.00    +0.080 C 
ATOM      4  C   LIG    1        0.157  -0.006   0.075  0.00  0.00    -0.120 A 
ATOM      5  C   LIG    1        0.161  -0.668  -1.139  0.00  0.00    +0.040 A 
ATOM      6  C   LIG    1        0.129  -2.048  -1.174  0.00  0.00    -0.040 A 
ATOM      7  C   LIG    1        0.092  -2.771   0.011  0.00  0.00    +0.180 A 
ATOM      8  C   LIG    1        0.088  -2.103   1.229  0.00  0.00    -0.050 A 
ATOM      9  C   LIG    1        0.125  -0.723   1.258  0.00  0.00    +0.040 A 
ENDBRANCH   1   7
BRANCH   1  10
ATOM     10  C   LIG    1        0.576  -4.853  -1.124  0.00  0.00    +0.180 A 
ATOM     11  C   LIG    1        1.657  -4.332  -1.824  0.00  0.00    -0.030 A 
ATOM     12  C   LIG    1        2.165  -5.012  -2.913  0.00  0.00    +0.030 A 
ATOM     13  C   LIG    1        1.598  -6.210  -3.308  0.00  0.00    -0.030 A 
ATOM     14  C   LIG    1        0.522  -6.731  -2.614  0.00  0.00    +0.030 A 
ATOM     15  C   LIG    1        0.013  -6.060  -1.519  0.00  0.00    -0.050 A 
ENDBRANCH   1  10
TORSDOF 2
ENDMDL
MODEL      817
REMARK  Name = ZINC000020371840
REMARK                            x       y       z     vdW  Elec       q    Type
REMARK                         _______ _______ _______ _____ _____    ______ ____
ROOT
ATOM      1  C   LIG    1       -0.018   1.503   0.010  0.00  0.00    +0.090 C 
ATOM      2  C   LIG    1        0.002  -0.004   0.002  0.00  0.00    -0.120 A 
ATOM      3  C   LIG    1        0.006  -0.687  -1.200  0.00  0.00    +0.050 A 
ATOM      4  C   LIG    1        0.024  -2.069  -1.212  0.00  0.00    -0.040 A 
ATOM      5  C   LIG    1        0.039  -2.772  -0.016  0.00  0.00    +0.190 A 
ATOM      6  C   LIG    1        0.036  -2.083   1.193  0.00  0.00    +0.020 A 
ATOM      7  F   LIG    1        0.051  -2.763   2.360  0.00  0.00    -0.140 F 
ATOM      8  C   LIG    1        0.023  -0.700   1.197  0.00  0.00    +0.020 A 
ENDROOT
BRANCH   5   9
ATOM      9  N   LIG    1        0.058  -4.170  -0.025  0.00  0.00    -0.740 N 
ATOM     10  H   LIG    1        0.069  -4.661   0.812  0.00  0.00    +0.400 HD
BRANCH   9  11
ATOM     11  C   LIG    1        0.062  -4.894  -1.298  0.00  0.00    +0.230 C 
ATOM     12  C   LIG    1        1.498  -5.018  -1.811  0.00  0.00    +0.020 C 
BRANCH  11  13
ATOM     13  C   LIG    1       -0.528  -6.291  -1.093  0.00  0.00    -0.030 C 
ATOM     14  C   LIG    1       -0.524  -7.048  -2.423  0.00  0.00    +0.030 C 
ATOM     15  C   LIG    1       -1.964  -6.168  -0.581  0.00  0.00    +0.030 C 
ENDBRANCH  11  13
ENDBRANCH   9  11
ENDBRANCH   5   9
TORSDOF 3
ENDMDL
MODEL      818
REMARK  Name = ZINC000001691448
REMARK                            x       y       z     vdW  Elec       q    Type
REMARK                         _______ _______ _______ _____ _____    ______ ____
ROOT
ATOM      1  O   LIG    1        0.059  -4.129  -0.021  0.00  0.00    -0.310 OA
ENDROOT
BRANCH   1   6
ATOM      2  C   LIG    1       -0.018   1.503   0.010  0.00  0.00    +0.090 C 
ATOM      3  C   LIG    1        0.002  -0.004   0.002  0.00  0.00    -0.130 A 
ATOM      4  C   LIG    1        0.006  -0.688  -1.200  0.00  0.00    +0.050 A 
ATOM      5  C   LIG    1        0.025  -2.069  -1.210  0.00  0.00    -0.020 A 
ATOM      6  C   LIG    1        0.040  -2.770  -0.013  0.00  0.00    +0.120 A 
ATOM      7  C   LIG    1        0.037  -2.082   1.191  0.00  0.00    -0.080 A 
ATOM      8  C   LIG    1        0.023  -0.701   1.196  0.00  0.00    +0.040 A 
ENDBRANCH   1   6
BRANCH   1   9
ATOM      9  C   LIG    1        0.074  -4.785   1.249  0.00  0.00    +0.240 C 
BRANCH   9  10
ATOM     10  C   LIG    1        0.094  -6.277   1.043  0.00  0.00    -0.100 A 
ATOM     11  C   LIG    1       -1.094  -6.978   0.949  0.00  0.00    +0.020 A 
ATOM     12  C   LIG    1       -1.076  -8.347   0.760  0.00  0.00    +0.010 A 
ATOM     13  C   LIG    1        0.130  -9.016   0.665  0.00  0.00    +0.020 A 
ATOM     14  C   LIG    1        1.318  -8.315   0.759  0.00  0.00    +0.010 A 
ATOM     15  C   LIG    1        1.300  -6.945   0.943  0.00  0.00    +0.020 A 
ENDBRANCH   9  10
ENDBRANCH   1   9
TORSDOF 3
ENDMDL
MODEL      819
REMARK  Name = ZINC000002038775
REMARK                            x       y       z     vdW  Elec       q    Type
REMARK                         _______ _______ _______ _____ _____    ______ ____
ROOT
ATOM      1  C   LIG    1        0.877  -2.196  -1.277  0.00  0.00    -0.020 C 
ENDROOT
BRANCH   1   2
ATOM      2  C   LIG    1       -0.610  -2.474  -1.503  0.00  0.00    +0.000 C 
ATOM      3  C   LIG    1       -0.833  -3.982  -1.637  0.00  0.00    +0.000 C 
ENDBRANCH   1   2
BRANCH   1   4
ATOM      4  C   LIG    1        1.080  -0.707  -0.992  0.00  0.00    +0.000 C 
BRANCH   4   6
ATOM      5  C   LIG    1        0.598   1.147   0.612  0.00  0.00    +0.000 C 
ATOM      6  C   LIG    1        0.395  -0.342   0.327  0.00  0.00    -0.010 C 
ENDBRANCH   4   6
ENDBRANCH   1   4
BRANCH   1   7
ATOM      7  C   LIG    1        1.666  -2.588  -2.528  0.00  0.00    +0.000 C 
BRANCH   7   8
ATOM      8  C   LIG    1        3.163  -2.429  -2.258  0.00  0.00    -0.010 C 
ATOM      9  C   LIG    1        3.955  -2.926  -3.469  0.00  0.00    +0.000 C 
ENDBRANCH   7   8
ENDBRANCH   1   7
TORSDOF 5
ENDMDL
MODEL      820
REMARK  Name = ZINC000002035700
REMARK                            x       y       z     vdW  Elec       q    Type
REMARK                         _______ _______ _______ _____ _____    ______ ____
ROOT
ATOM      1  C   LIG    1        3.167  -3.818  -3.641  0.00  0.00    +0.040 C 
ENDROOT
BRANCH   1   3
ATOM      2  C   LIG    1        1.444  -2.513  -2.505  0.00  0.00    -0.050 C 
ATOM      3  C   LIG    1        2.462  -3.332  -2.401  0.00  0.00    -0.050 C 
BRANCH   2   4
ATOM      4  C   LIG    1        0.739  -2.027  -1.265  0.00  0.00    +0.040 C 
BRANCH   4   5
ATOM      5  C   LIG    1        0.718  -0.497  -1.257  0.00  0.00    +0.000 C 
BRANCH   5   7
ATOM      6  C   LIG    1       -0.019   1.526   0.010  0.00  0.00    +0.000 C 
ATOM      7  C   LIG    1        0.002  -0.004   0.002  0.00  0.00    -0.010 C 
ENDBRANCH   5   7
ENDBRANCH   4   5
ENDBRANCH   2   4
ENDBRANCH   1   3
BRANCH   1   8
ATOM      8  C   LIG    1        4.661  -3.503  -3.535  0.00  0.00    +0.010 C 
BRANCH   8   9
ATOM      9  C   LIG    1        5.377  -3.997  -4.794  0.00  0.00    +0.000 C 
BRANCH   9  10
ATOM     10  C   LIG    1        6.870  -3.682  -4.688  0.00  0.00    +0.000 C 
BRANCH  10  11
ATOM     11  C   LIG    1        7.586  -4.175  -5.946  0.00  0.00    +0.020 C 
BRANCH  11  12
ATOM     12  C   LIG    1        9.080  -3.860  -5.840  0.00  0.00    +0.150 C 
BRANCH  12  13
ATOM     13  O   LIG    1        9.749  -4.321  -7.016  0.00  0.00    -0.580 OA
ATOM     14  H   LIG    1       10.701  -4.154  -7.017  0.00  0.00    +0.380 HD
ENDBRANCH  12  13
ENDBRANCH  11  12
ENDBRANCH  10  11
ENDBRANCH   9  10
ENDBRANCH   8   9
ENDBRANCH   1   8
TORSDOF 10
ENDMDL
MODEL      821
REMARK  Name = ZINC000066323188
REMARK                            x       y       z     vdW  Elec       q    Type
REMARK                         _______ _______ _______ _____ _____    ______ ____
ROOT
ATOM      1  C   LIG    1       -0.018   1.503   0.010  0.00  0.00    +0.090 C 
ATOM      2  C   LIG    1        0.002  -0.004   0.002  0.00  0.00    -0.080 A 
ATOM      3  C   LIG    1        0.006  -0.689  -1.199  0.00  0.00    +0.010 A 
ATOM      4  C   LIG    1        0.025  -2.071  -1.206  0.00  0.00    +0.040 A 
ATOM      5  C   LIG    1        0.040  -2.768  -0.013  0.00  0.00    -0.110 A 
ATOM      6  C   LIG    1        0.038  -2.084   1.188  0.00  0.00    +0.030 A 
ATOM      7  C   LIG    1        0.023  -0.702   1.195  0.00  0.00    +0.010 A 
ENDROOT
BRANCH   5   8
ATOM      8  C   LIG    1        0.060  -4.275  -0.021  0.00  0.00    +0.030 C 
ATOM      9  C   LIG    1       -1.179  -4.806   0.704  0.00  0.00    +0.070 C 
BRANCH   8  10
ATOM     10  C   LIG    1        1.320  -4.773   0.690  0.00  0.00    +0.460 C 
ATOM     11  F   LIG    1        2.452  -4.288   0.027  0.00  0.00    -0.180 F 
ATOM     12  F   LIG    1        1.338  -6.171   0.683  0.00  0.00    -0.180 F 
ATOM     13  F   LIG    1        1.321  -4.314   2.012  0.00  0.00    -0.180 F 
ENDBRANCH   8  10
ENDBRANCH   5   8
TORSDOF 2
ENDMDL
MODEL      822
REMARK  Name = ZINC000001707965
REMARK                            x       y       z     vdW  Elec       q    Type
REMARK                         _______ _______ _______ _____ _____    ______ ____
ROOT
ATOM      1  C   LIG    1       -3.075  -4.035   0.010  0.00  0.00    -0.170 A 
ATOM      2  C   LIG    1       -2.002  -4.932   0.001  0.00  0.00    +0.080 A 
ATOM      3  C   LIG    1       -2.243  -6.289  -0.004  0.00  0.00    +0.020 A 
ATOM      4  C   LIG    1       -3.545  -6.765   0.001  0.00  0.00    -0.010 A 
ATOM      5  C   LIG    1       -4.612  -5.882   0.010  0.00  0.00    +0.020 A 
ATOM      6 CL   LIG    1       -3.839  -8.476  -0.005  0.00  0.00    -0.060 Cl
ATOM      7  C   LIG    1       -4.387  -4.523   0.020  0.00  0.00    +0.090 A 
ENDROOT
BRANCH   1   8
ATOM      8  C   LIG    1       -2.826  -2.585   0.015  0.00  0.00    +0.400 C 
ATOM      9  O   LIG    1       -3.759  -1.810   0.028  0.00  0.00    -0.450 OA
BRANCH   8  10
ATOM     10  C   LIG    1       -1.413  -2.063   0.004  0.00  0.00    +0.030 C 
BRANCH  10  11
ATOM     11  C   LIG    1       -1.433  -0.534   0.013  0.00  0.00    +0.030 C 
BRANCH  11  13
ATOM     12  C   LIG    1       -0.019   1.526   0.010  0.00  0.00    +0.010 C 
ATOM     13  C   LIG    1        0.002  -0.004   0.002  0.00  0.00    -0.010 C 
ENDBRANCH  11  13
ENDBRANCH  10  11
ENDBRANCH   8  10
ENDBRANCH   1   8
TORSDOF 4
ENDMDL
MODEL      823
REMARK  Name = ZINC000253386833
REMARK                            x       y       z     vdW  Elec       q    Type
REMARK                         _______ _______ _______ _____ _____    ______ ____
ROOT
ATOM      1  C   LIG    1        3.104  -2.893   1.488  0.00  0.00    -0.030 C 
ATOM      2  C   LIG    1        2.349  -2.312   2.694  0.00  0.00    -0.110 C 
ATOM      3  C   LIG    1        1.363  -3.251   3.384  0.00  0.00    +0.060 C 
ATOM      4  C   LIG    1        2.066  -4.027   4.498  0.00  0.00    +0.000 C 
ATOM      5  C   LIG    1        3.289  -4.734   3.904  0.00  0.00    +0.000 C 
ATOM      6  C   LIG    1        4.379  -3.693   3.650  0.00  0.00    +0.060 C 
ATOM      7  C   LIG    1        1.891  -0.855   2.596  0.00  0.00    +0.050 C 
ATOM      8  C   LIG    1        3.848  -2.568   2.776  0.00  0.00    -0.090 C 
ATOM      9  C   LIG    1        4.729  -1.317   2.743  0.00  0.00    +0.050 C 
ENDROOT
BRANCH   1  10
ATOM     10  C   LIG    1        3.333  -1.974   0.287  0.00  0.00    +0.180 C 
ATOM     11  C   LIG    1        4.781  -2.109  -0.189  0.00  0.00    +0.010 C 
BRANCH  10  12
ATOM     12  O   LIG    1        2.447  -2.342  -0.772  0.00  0.00    -0.380 OA
BRANCH  12  14
ATOM     13  C   LIG    1        1.123  -1.763  -2.708  0.00  0.00    +0.040 C 
ATOM     14  C   LIG    1        2.067  -1.255  -1.616  0.00  0.00    +0.160 C 
ENDBRANCH  12  14
ENDBRANCH  10  12
ENDBRANCH   1  10
TORSDOF 3
ENDMDL
MODEL      824
REMARK  Name = ZINC000002564085
REMARK                            x       y       z     vdW  Elec       q    Type
REMARK                         _______ _______ _______ _____ _____    ______ ____
ROOT
ATOM      1  C   LIG    1        1.503  -2.548   2.473  0.00  0.00    -0.070 C 
ATOM      2  C   LIG    1        0.787  -2.054   3.732  0.00  0.00    +0.020 C 
ATOM      3  C   LIG    1        2.938  -2.018   2.462  0.00  0.00    +0.020 C 
ENDROOT
BRANCH   1   4
ATOM      4  C   LIG    1        1.524  -4.077   2.464  0.00  0.00    +0.010 C 
ATOM      5  C   LIG    1        2.264  -4.584   3.704  0.00  0.00    +0.010 C 
ENDBRANCH   1   4
BRANCH   1   6
ATOM      6  C   LIG    1        0.763  -2.041   1.233  0.00  0.00    +0.010 C 
BRANCH   6   7
ATOM      7  C   LIG    1        0.742  -0.511   1.242  0.00  0.00    +0.000 C 
BRANCH   7   9
ATOM      8  C   LIG    1       -0.019   1.526   0.010  0.00  0.00    +0.000 C 
ATOM      9  C   LIG    1        0.002  -0.004   0.002  0.00  0.00    -0.010 C 
ENDBRANCH   7   9
ENDBRANCH   6   7
ENDBRANCH   1   6
TORSDOF 4
ENDMDL
MODEL      825
REMARK  Name = ZINC000253386834
REMARK                            x       y       z     vdW  Elec       q    Type
REMARK                         _______ _______ _______ _____ _____    ______ ____
ROOT
ATOM      1  C   LIG    1        1.200  -3.650   2.944  0.00  0.00    -0.030 C 
ATOM      2  C   LIG    1       -0.272  -3.297   3.210  0.00  0.00    -0.110 C 
ATOM      3  C   LIG    1       -0.729  -3.380   4.664  0.00  0.00    +0.050 C 
ATOM      4  C   LIG    1       -0.526  -2.033   5.358  0.00  0.00    +0.000 C 
ATOM      5  C   LIG    1        0.938  -1.611   5.187  0.00  0.00    +0.000 C 
ATOM      6  C   LIG    1        1.145  -1.142   3.747  0.00  0.00    +0.060 C 
ATOM      7  C   LIG    1       -1.302  -3.772   2.183  0.00  0.00    +0.050 C 
ATOM      8  C   LIG    1        0.709  -2.219   2.768  0.00  0.00    -0.090 C 
ATOM      9  C   LIG    1        0.547  -1.740   1.324  0.00  0.00    +0.060 C 
ENDROOT
BRANCH   1  10
ATOM     10  C   LIG    1        1.518  -4.449   1.678  0.00  0.00    +0.170 C 
ATOM     11  C   LIG    1        1.949  -5.865   2.065  0.00  0.00    +0.020 C 
BRANCH  10  12
ATOM     12  O   LIG    1        2.575  -3.808   0.963  0.00  0.00    -0.380 OA
BRANCH  12  14
ATOM     13  C   LIG    1        3.695  -3.274  -1.111  0.00  0.00    +0.040 C 
ATOM     14  C   LIG    1        2.521  -4.001  -0.452  0.00  0.00    +0.150 C 
ENDBRANCH  12  14
ENDBRANCH  10  12
ENDBRANCH   1  10
TORSDOF 3
ENDMDL
MODEL      826
REMARK  Name = ZINC000001845879
REMARK                            x       y       z     vdW  Elec       q    Type
REMARK                         _______ _______ _______ _____ _____    ______ ____
ROOT
ATOM      1  C   LIG    1       -0.639   1.591   0.225  0.00  0.00    +0.090 C 
ATOM      2  C   LIG    1       -0.388   0.109   0.113  0.00  0.00    -0.070 A 
ATOM      3  C   LIG    1       -0.361  -0.490  -1.108  0.00  0.00    +0.000 A 
ATOM      4  C   LIG    1       -0.130  -1.859  -1.232  0.00  0.00    +0.010 A 
ATOM      5  C   LIG    1        0.075  -2.637  -0.134  0.00  0.00    +0.010 A 
ATOM      6  C   LIG    1        0.055  -2.054   1.145  0.00  0.00    -0.040 A 
ATOM      7  C   LIG    1        0.262  -2.824   2.301  0.00  0.00    -0.080 A 
ATOM      8  C   LIG    1        0.235  -2.225   3.524  0.00  0.00    -0.090 A 
ATOM      9  C   LIG    1        0.005  -0.856   3.647  0.00  0.00    +0.010 A 
ATOM     10  C   LIG    1       -0.200  -0.079   2.549  0.00  0.00    +0.020 A 
ATOM     11  C   LIG    1        0.458  -3.054   4.762  0.00  0.00    +0.090 C 
ATOM     12  C   LIG    1        0.513  -4.306   2.190  0.00  0.00    +0.090 C 
ATOM     13  C   LIG    1       -0.174  -0.660   1.270  0.00  0.00    -0.050 A 
ENDROOT
TORSDOF 0
ENDMDL
MODEL      827
REMARK  Name = ZINC000003379458
REMARK                            x       y       z     vdW  Elec       q    Type
REMARK                         _______ _______ _______ _____ _____    ______ ____
ROOT
ATOM      1  C   LIG    1       -0.018   1.503   0.010  0.00  0.00    +0.100 C 
ATOM      2  C   LIG    1        0.002  -0.004   0.002  0.00  0.00    -0.060 A 
ATOM      3  C   LIG    1        0.006  -0.683  -1.214  0.00  0.00    +0.020 A 
ATOM      4  C   LIG    1        0.024  -2.044  -1.255  0.00  0.00    +0.050 A 
ATOM      5  C   LIG    1        0.040  -2.774  -0.056  0.00  0.00    -0.110 A 
ATOM      6  C   LIG    1        0.061  -4.182  -0.055  0.00  0.00    -0.010 A 
ATOM      7  C   LIG    1        0.076  -4.825   1.149  0.00  0.00    -0.020 A 
ATOM      8  C   LIG    1        0.071  -4.088   2.333  0.00  0.00    +0.210 A 
ATOM      9  N   LIG    1        0.052  -2.776   2.328  0.00  0.00    -0.470 NA
ATOM     10 CL   LIG    1        0.091  -4.927   3.852  0.00  0.00    -0.030 Cl
ATOM     11  C   LIG    1        0.066  -4.957  -1.348  0.00  0.00    +0.130 C 
ATOM     12  C   LIG    1        0.037  -2.085   1.183  0.00  0.00    +0.150 A 
ATOM     13  C   LIG    1        0.022  -0.680   1.183  0.00  0.00    +0.040 A 
ENDROOT
TORSDOF 0
ENDMDL
MODEL      828
REMARK  Name = ZINC000019721836
REMARK                            x       y       z     vdW  Elec       q    Type
REMARK                         _______ _______ _______ _____ _____    ______ ____
ROOT
ATOM      1  C   LIG    1        0.010   1.503   0.008  0.00  0.00    +0.110 C 
ATOM      2  C   LIG    1        0.015  -0.004   0.001  0.00  0.00    -0.070 A 
ATOM      3  C   LIG    1       -0.086  -0.684  -1.211  0.00  0.00    +0.030 A 
ATOM      4  C   LIG    1       -0.084  -2.046  -1.250  0.00  0.00    +0.040 A 
ATOM      5  C   LIG    1        0.023  -2.774  -0.055  0.00  0.00    -0.100 A 
ATOM      6  C   LIG    1        0.029  -4.183  -0.052  0.00  0.00    +0.020 A 
ATOM      7  C   LIG    1        0.137  -4.824   1.151  0.00  0.00    -0.020 A 
ATOM      8  C   LIG    1        0.236  -4.085   2.326  0.00  0.00    +0.310 A 
ATOM      9  N   LIG    1        0.229  -2.773   2.320  0.00  0.00    -0.470 NA
ATOM     10 CL   LIG    1       -0.095  -5.079  -1.534  0.00  0.00    -0.040 Cl
ATOM     11  C   LIG    1        0.127  -2.084   1.179  0.00  0.00    +0.140 A 
ATOM     12  C   LIG    1        0.126  -0.679   1.178  0.00  0.00    -0.060 A 
ATOM     13  C   LIG    1        0.240   0.079   2.476  0.00  0.00    +0.110 C 
ENDROOT
TORSDOF 0
ENDMDL
MODEL      829
REMARK  Name = ZINC000095611755
REMARK                            x       y       z     vdW  Elec       q    Type
REMARK                         _______ _______ _______ _____ _____    ______ ____
ROOT
ATOM      1  C   LIG    1       -2.721  -2.593   0.096  0.00  0.00    +0.050 C 
ENDROOT
BRANCH   1   2
ATOM      2  C   LIG    1       -2.791  -4.097   0.030  0.00  0.00    -0.050 C 
ATOM      3  C   LIG    1       -3.376  -4.768   0.991  0.00  0.00    -0.040 C 
BRANCH   3   4
ATOM      4  C   LIG    1       -4.126  -4.035   2.074  0.00  0.00    +0.000 C 
ATOM      5  C   LIG    1       -3.395  -4.207   3.407  0.00  0.00    +0.020 C 
ATOM      6  C   LIG    1       -5.541  -4.605   2.190  0.00  0.00    +0.020 C 
ENDBRANCH   3   4
ENDBRANCH   1   2
BRANCH   1   7
ATOM      7  C   LIG    1       -1.270  -2.141  -0.082  0.00  0.00    +0.010 C 
BRANCH   7   8
ATOM      8  C   LIG    1       -1.200  -0.615  -0.016  0.00  0.00    +0.000 C 
BRANCH   8  10
ATOM      9  C   LIG    1        0.322   1.364  -0.128  0.00  0.00    +0.000 C 
ATOM     10  C   LIG    1        0.251  -0.163  -0.194  0.00  0.00    -0.010 C 
ENDBRANCH   8  10
ENDBRANCH   7   8
ENDBRANCH   1   7
TORSDOF 5
ENDMDL
MODEL      830
REMARK  Name = ZINC000001580786
REMARK                            x       y       z     vdW  Elec       q    Type
REMARK                         _______ _______ _______ _____ _____    ______ ____
ROOT
ATOM      1  C   LIG    1       -0.018   1.503   0.010  0.00  0.00    +0.090 C 
ATOM      2  C   LIG    1        0.002  -0.004   0.002  0.00  0.00    -0.080 A 
ATOM      3  C   LIG    1        0.006  -0.688  -1.200  0.00  0.00    +0.010 A 
ATOM      4  C   LIG    1        0.025  -2.067  -1.215  0.00  0.00    +0.030 A 
ATOM      5  C   LIG    1        0.041  -2.777  -0.013  0.00  0.00    -0.070 A 
ATOM      6  C   LIG    1        0.037  -2.080   1.192  0.00  0.00    -0.090 A 
ATOM      7  C   LIG    1        0.056  -3.097   2.306  0.00  0.00    +0.160 C 
ATOM      8  C   LIG    1        0.072  -4.449   1.636  0.00  0.00    -0.090 A 
ATOM      9  C   LIG    1        0.092  -5.732   2.140  0.00  0.00    +0.030 A 
ATOM     10  C   LIG    1        0.103  -6.815   1.279  0.00  0.00    +0.020 A 
ATOM     11  C   LIG    1        0.093  -6.613  -0.089  0.00  0.00    +0.010 A 
ATOM     12  C   LIG    1        0.073  -5.333  -0.603  0.00  0.00    +0.020 A 
ATOM     13  C   LIG    1        0.062  -4.236   0.260  0.00  0.00    -0.060 A 
ATOM     14  C   LIG    1        0.023  -0.701   1.197  0.00  0.00    +0.030 A 
ENDROOT
TORSDOF 0
ENDMDL
MODEL      831
REMARK  Name = ZINC000002167281
REMARK                            x       y       z     vdW  Elec       q    Type
REMARK                         _______ _______ _______ _____ _____    ______ ____
ROOT
ATOM      1  C   LIG    1        1.476  -4.028  -2.532  0.00  0.00    +0.360 C 
ATOM      2  O   LIG    1        0.970  -4.643  -1.625  0.00  0.00    -0.450 OA
ENDROOT
BRANCH   1   3
ATOM      3  C   LIG    1        2.127  -4.766  -3.673  0.00  0.00    -0.040 C 
ATOM      4  C   LIG    1        1.126  -4.920  -4.820  0.00  0.00    +0.050 C 
BRANCH   3   5
ATOM      5  C   LIG    1        2.573  -6.150  -3.196  0.00  0.00    +0.020 C 
BRANCH   5   6
ATOM      6  C   LIG    1        3.344  -6.851  -4.316  0.00  0.00    +0.000 C 
ATOM      7  C   LIG    1        3.790  -8.235  -3.839  0.00  0.00    +0.000 C 
ENDBRANCH   5   6
ENDBRANCH   3   5
ENDBRANCH   1   3
BRANCH   1   8
ATOM      8  C   LIG    1        1.455  -2.521  -2.524  0.00  0.00    +0.030 C 
BRANCH   8   9
ATOM      9  C   LIG    1        0.739  -2.027  -1.265  0.00  0.00    +0.030 C 
BRANCH   9  10
ATOM     10  C   LIG    1        0.718  -0.497  -1.257  0.00  0.00    +0.000 C 
BRANCH  10  12
ATOM     11  C   LIG    1       -0.019   1.526   0.010  0.00  0.00    +0.000 C 
ATOM     12  C   LIG    1        0.002  -0.004   0.002  0.00  0.00    -0.010 C 
ENDBRANCH  10  12
ENDBRANCH   9  10
ENDBRANCH   8   9
ENDBRANCH   1   8
TORSDOF 7
ENDMDL
MODEL      832
REMARK  Name = ZINC000257358370
REMARK                            x       y       z     vdW  Elec       q    Type
REMARK                         _______ _______ _______ _____ _____    ______ ____
ROOT
ATOM      1  C   LIG    1       -0.019   1.526   0.010  0.00  0.00    +0.030 C 
ATOM      2  C   LIG    1        0.002  -0.004   0.002  0.00  0.00    +0.030 C 
ATOM      3  C   LIG    1       -1.406  -0.531   0.145  0.00  0.00    -0.050 C 
ATOM      4  C   LIG    1       -2.008  -0.383   1.307  0.00  0.00    -0.040 C 
ATOM      5  C   LIG    1       -1.246   0.305   2.415  0.00  0.00    +0.070 C 
ATOM      6  C   LIG    1        0.148  -0.324   2.525  0.00  0.00    -0.030 C 
ATOM      7  C   LIG    1        1.218   0.730   2.800  0.00  0.00    -0.040 C 
ATOM      8  C   LIG    1        1.834   0.539   1.645  0.00  0.00    -0.020 C 
ATOM      9  C   LIG    1        0.205  -1.432   3.562  0.00  0.00    +0.020 C 
ATOM     10  C   LIG    1        0.502  -2.793   2.930  0.00  0.00    +0.000 C 
ATOM     11  C   LIG    1        1.801  -2.658   2.123  0.00  0.00    +0.000 C 
ATOM     12  C   LIG    1        1.482  -1.855   0.868  0.00  0.00    +0.020 C 
ATOM     13  C   LIG    1        0.847  -0.517   1.186  0.00  0.00    -0.020 C 
ENDROOT
TORSDOF 0
ENDMDL
MODEL      833
REMARK  Name = ZINC000004521004
REMARK                            x       y       z     vdW  Elec       q    Type
REMARK                         _______ _______ _______ _____ _____    ______ ____
ROOT
ATOM      1  C   LIG    1       -0.018   1.503   0.010  0.00  0.00    +0.080 C 
ATOM      2  C   LIG    1        0.002  -0.004   0.002  0.00  0.00    -0.050 A 
ATOM      3  C   LIG    1        0.006  -0.690  -1.199  0.00  0.00    -0.060 A 
ATOM      4  C   LIG    1        0.026  -2.071  -1.209  0.00  0.00    +0.050 A 
ATOM      5  C   LIG    1        0.043  -2.779  -0.019  0.00  0.00    -0.150 A 
ATOM      6  C   LIG    1        0.037  -2.092   1.185  0.00  0.00    +0.220 A 
ATOM      7  N   LIG    1        0.044  -2.780   2.404  0.00  0.00    -0.740 N 
ATOM      8  H   LIG    1       -0.157  -2.318   3.232  0.00  0.00    +0.400 HD
ATOM      9  C   LIG    1        0.361  -4.215   2.407  0.00  0.00    +0.170 C 
ATOM     10  C   LIG    1       -0.417  -4.870   1.258  0.00  0.00    +0.030 C 
ATOM     11  C   LIG    1       -0.060  -4.835   3.740  0.00  0.00    +0.040 C 
ATOM     12  C   LIG    1        1.863  -4.414   2.195  0.00  0.00    +0.020 C 
ATOM     13  C   LIG    1        0.070  -4.284  -0.066  0.00  0.00    +0.040 C 
ATOM     14  C   LIG    1       -0.838  -4.769  -1.198  0.00  0.00    +0.030 C 
ATOM     15  C   LIG    1        0.023  -0.702   1.193  0.00  0.00    -0.070 A 
ENDROOT
TORSDOF 0
ENDMDL
MODEL      834
REMARK  Name = ZINC000001076069
REMARK                            x       y       z     vdW  Elec       q    Type
REMARK                         _______ _______ _______ _____ _____    ______ ____
ROOT
ATOM      1  C   LIG    1       -0.018   1.503   0.010  0.00  0.00    +0.070 C 
ATOM      2  C   LIG    1        0.002  -0.004   0.002  0.00  0.00    -0.140 A 
ATOM      3  C   LIG    1        0.006  -0.687  -1.200  0.00  0.00    +0.040 A 
ATOM      4  C   LIG    1        0.026  -2.068  -1.208  0.00  0.00    -0.070 A 
ATOM      5  C   LIG    1        0.043  -2.770  -0.008  0.00  0.00    +0.220 A 
ATOM      6  N   LIG    1        0.072  -4.168  -0.037  0.00  0.00    -0.740 N 
ATOM      7  H   LIG    1        0.271  -4.640  -0.861  0.00  0.00    +0.400 HD
ATOM      8  C   LIG    1       -0.205  -4.911   1.200  0.00  0.00    +0.170 C 
ATOM      9  C   LIG    1        0.574  -4.236   2.337  0.00  0.00    +0.030 C 
ATOM     10  C   LIG    1        0.049  -2.811   2.516  0.00  0.00    +0.040 C 
ATOM     11  C   LIG    1        0.953  -2.059   3.495  0.00  0.00    +0.030 C 
ATOM     12  C   LIG    1        0.254  -6.362   1.047  0.00  0.00    +0.040 C 
ATOM     13  C   LIG    1       -1.704  -4.871   1.504  0.00  0.00    +0.020 C 
ATOM     14  C   LIG    1        0.036  -2.084   1.198  0.00  0.00    -0.140 A 
ATOM     15  C   LIG    1        0.023  -0.700   1.196  0.00  0.00    +0.040 A 
ENDROOT
TORSDOF 0
ENDMDL
MODEL      835
REMARK  Name = ZINC000001241944
REMARK                            x       y       z     vdW  Elec       q    Type
REMARK                         _______ _______ _______ _____ _____    ______ ____
ROOT
ATOM      1  C   LIG    1       -0.018   1.503   0.010  0.00  0.00    +0.090 C 
ATOM      2  C   LIG    1        0.002  -0.004   0.002  0.00  0.00    -0.050 A 
ATOM      3  C   LIG    1        0.006  -0.690  -1.199  0.00  0.00    -0.050 A 
ATOM      4  C   LIG    1        0.023  -2.071  -1.209  0.00  0.00    +0.040 A 
ATOM      5  C   LIG    1        0.037  -2.779  -0.019  0.00  0.00    -0.150 A 
ATOM      6  C   LIG    1        0.037  -2.092   1.185  0.00  0.00    +0.220 A 
ATOM      7  N   LIG    1        0.061  -2.780   2.403  0.00  0.00    -0.750 N 
ATOM      8  H   LIG    1        0.258  -2.312   3.230  0.00  0.00    +0.400 HD
ATOM      9  C   LIG    1       -0.217  -4.223   2.410  0.00  0.00    +0.240 C 
ATOM     10  C   LIG    1        0.567  -4.856   1.253  0.00  0.00    +0.020 C 
ATOM     11  C   LIG    1       -1.716  -4.462   2.214  0.00  0.00    +0.010 C 
ATOM     12  C   LIG    1        0.050  -4.284  -0.066  0.00  0.00    +0.040 C 
ATOM     13  C   LIG    1        0.960  -4.745  -1.207  0.00  0.00    +0.030 C 
ATOM     14  C   LIG    1        0.023  -0.702   1.193  0.00  0.00    -0.160 A 
ATOM     15  C   LIG    1        0.019   0.044   2.503  0.00  0.00    +0.080 C 
ENDROOT
TORSDOF 0
ENDMDL
MODEL      836
REMARK  Name = ZINC000000382908
REMARK                            x       y       z     vdW  Elec       q    Type
REMARK                         _______ _______ _______ _____ _____    ______ ____
ROOT
ATOM      1  C   LIG    1       -0.018   1.503   0.010  0.00  0.00    +0.100 C 
ATOM      2  C   LIG    1        0.002  -0.004   0.002  0.00  0.00    -0.060 A 
ATOM      3  C   LIG    1        0.006  -0.683  -1.214  0.00  0.00    +0.020 A 
ATOM      4  C   LIG    1        0.024  -2.044  -1.255  0.00  0.00    +0.050 A 
ATOM      5  C   LIG    1        0.040  -2.774  -0.056  0.00  0.00    -0.100 A 
ATOM      6  C   LIG    1        0.061  -4.182  -0.055  0.00  0.00    +0.100 A 
ATOM      7  C   LIG    1        0.076  -4.825   1.149  0.00  0.00    -0.130 A 
ATOM      8  C   LIG    1        0.071  -4.088   2.333  0.00  0.00    +0.210 A 
ATOM      9  N   LIG    1        0.052  -2.776   2.328  0.00  0.00    -0.470 NA
ATOM     10 CL   LIG    1        0.091  -4.927   3.852  0.00  0.00    -0.020 Cl
ATOM     11  C   LIG    1        0.098  -6.331   1.198  0.00  0.00    +0.120 C 
ATOM     12  C   LIG    1        0.037  -2.085   1.183  0.00  0.00    +0.140 A 
ATOM     13  C   LIG    1        0.022  -0.680   1.183  0.00  0.00    +0.040 A 
ENDROOT
TORSDOF 0
ENDMDL
MODEL      837
REMARK  Name = ZINC000001037159
REMARK                            x       y       z     vdW  Elec       q    Type
REMARK                         _______ _______ _______ _____ _____    ______ ____
ROOT
ATOM      1  C   LIG    1       -0.018   1.503   0.010  0.00  0.00    +0.090 C 
ATOM      2  C   LIG    1        0.002  -0.004   0.002  0.00  0.00    -0.080 A 
ATOM      3  C   LIG    1        0.005  -0.684  -1.214  0.00  0.00    +0.000 A 
ATOM      4  C   LIG    1        0.024  -2.044  -1.257  0.00  0.00    +0.030 A 
ATOM      5  C   LIG    1        0.040  -2.777  -0.059  0.00  0.00    -0.060 A 
ATOM      6  C   LIG    1        0.059  -4.182  -0.062  0.00  0.00    +0.020 A 
ATOM      7  C   LIG    1        0.074  -4.859   1.118  0.00  0.00    -0.080 A 
ATOM      8  C   LIG    1        0.071  -4.179   2.335  0.00  0.00    -0.080 A 
ATOM      9  C   LIG    1        0.052  -2.819   2.378  0.00  0.00    +0.020 A 
ATOM     10  C   LIG    1        0.088  -4.962   3.623  0.00  0.00    +0.090 C 
ATOM     11  C   LIG    1        0.096  -6.366   1.110  0.00  0.00    +0.090 C 
ATOM     12  C   LIG    1        0.036  -2.086   1.179  0.00  0.00    -0.050 A 
ATOM     13  C   LIG    1        0.022  -0.681   1.183  0.00  0.00    +0.020 A 
ENDROOT
TORSDOF 0
ENDMDL
MODEL      838
REMARK  Name = ZINC000071787038
REMARK                            x       y       z     vdW  Elec       q    Type
REMARK                         _______ _______ _______ _____ _____    ______ ____
ROOT
ATOM      1  C   LIG    1       -0.018   1.503   0.010  0.00  0.00    +0.090 C 
ATOM      2  C   LIG    1        0.002  -0.004   0.002  0.00  0.00    -0.080 A 
ATOM      3  C   LIG    1        0.006  -0.684  -1.214  0.00  0.00    +0.000 A 
ATOM      4  C   LIG    1        0.024  -2.045  -1.257  0.00  0.00    +0.030 A 
ATOM      5  C   LIG    1        0.040  -2.779  -0.060  0.00  0.00    -0.050 A 
ATOM      6  C   LIG    1        0.060  -4.185  -0.067  0.00  0.00    +0.020 A 
ATOM      7  C   LIG    1        0.075  -4.874   1.101  0.00  0.00    +0.030 A 
ATOM      8  C   LIG    1        0.072  -4.203   2.341  0.00  0.00    -0.080 A 
ATOM      9  C   LIG    1        0.053  -2.818   2.372  0.00  0.00    -0.100 A 
ATOM     10  C   LIG    1        0.056  -2.420   3.828  0.00  0.00    +0.130 C 
ATOM     11  C   LIG    1        0.078  -3.720   4.598  0.00  0.00    +0.000 C 
ATOM     12  C   LIG    1        0.087  -4.713   3.725  0.00  0.00    +0.010 C 
ATOM     13  C   LIG    1        0.037  -2.087   1.179  0.00  0.00    -0.020 A 
ATOM     14  C   LIG    1        0.022  -0.681   1.183  0.00  0.00    +0.020 A 
ENDROOT
TORSDOF 0
ENDMDL
MODEL      839
REMARK  Name = ZINC000003163109
REMARK                            x       y       z     vdW  Elec       q    Type
REMARK                         _______ _______ _______ _____ _____    ______ ____
ROOT
ATOM      1  C   LIG    1       -0.018   1.503   0.010  0.00  0.00    +0.100 C 
ATOM      2  C   LIG    1        0.002  -0.004   0.002  0.00  0.00    -0.080 A 
ATOM      3  C   LIG    1        0.006  -0.685  -1.213  0.00  0.00    +0.040 A 
ATOM      4  C   LIG    1        0.024  -2.045  -1.256  0.00  0.00    +0.050 A 
ATOM      5  C   LIG    1        0.040  -2.781  -0.059  0.00  0.00    +0.140 A 
ATOM      6  N   LIG    1        0.059  -4.118  -0.070  0.00  0.00    -0.470 NA
ATOM      7  C   LIG    1        0.074  -4.809   1.045  0.00  0.00    +0.210 A 
ATOM      8  C   LIG    1        0.072  -4.187   2.293  0.00  0.00    -0.020 A 
ATOM      9  C   LIG    1        0.053  -2.824   2.375  0.00  0.00    -0.010 A 
ATOM     10  C   LIG    1        0.050  -2.129   3.712  0.00  0.00    +0.130 C 
ATOM     11 CL   LIG    1        0.099  -6.543   0.964  0.00  0.00    -0.030 Cl
ATOM     12  C   LIG    1        0.037  -2.086   1.176  0.00  0.00    -0.100 A 
ATOM     13  C   LIG    1        0.022  -0.682   1.183  0.00  0.00    +0.030 A 
ENDROOT
TORSDOF 0
ENDMDL
MODEL      840
REMARK  Name = ZINC000000320757
REMARK                            x       y       z     vdW  Elec       q    Type
REMARK                         _______ _______ _______ _____ _____    ______ ____
ROOT
ATOM      1  C   LIG    1       -0.018   1.503   0.010  0.00  0.00    +0.100 C 
ATOM      2  C   LIG    1        0.002  -0.004   0.002  0.00  0.00    -0.080 A 
ATOM      3  C   LIG    1        0.006  -0.685  -1.213  0.00  0.00    +0.040 A 
ATOM      4  C   LIG    1        0.024  -2.045  -1.256  0.00  0.00    +0.050 A 
ATOM      5  C   LIG    1        0.040  -2.780  -0.059  0.00  0.00    +0.140 A 
ATOM      6  N   LIG    1        0.059  -4.117  -0.070  0.00  0.00    -0.470 NA
ATOM      7  C   LIG    1        0.074  -4.809   1.044  0.00  0.00    +0.170 A 
ATOM      8  C   LIG    1        0.072  -4.190   2.292  0.00  0.00    -0.010 A 
ATOM      9  C   LIG    1        0.053  -2.825   2.376  0.00  0.00    +0.020 A 
ATOM     10 CL   LIG    1        0.050  -2.026   3.917  0.00  0.00    -0.040 Cl
ATOM     11  C   LIG    1        0.096  -6.314   0.973  0.00  0.00    +0.140 C 
ATOM     12  C   LIG    1        0.037  -2.086   1.176  0.00  0.00    -0.100 A 
ATOM     13  C   LIG    1        0.022  -0.682   1.183  0.00  0.00    +0.030 A 
ENDROOT
TORSDOF 0
ENDMDL
MODEL      841
REMARK  Name = ZINC000003851209
REMARK                            x       y       z     vdW  Elec       q    Type
REMARK                         _______ _______ _______ _____ _____    ______ ____
ROOT
ATOM      1  C   LIG    1       -4.263  -4.652   0.018  0.00  0.00    +0.210 C 
ENDROOT
BRANCH   1   2
ATOM      2  C   LIG    1       -4.242  -6.178   0.135  0.00  0.00    +0.000 C 
ATOM      3  C   LIG    1       -3.497  -6.757  -1.032  0.00  0.00    -0.060 C 
ATOM      4  C   LIG    1       -3.883  -7.800  -1.694  0.00  0.00    -0.040 C 
ATOM      5  C   LIG    1       -5.136  -8.570  -1.393  0.00  0.00    +0.050 C 
ATOM      6  C   LIG    1       -5.640  -8.230   0.011  0.00  0.00    +0.010 C 
ATOM      7  C   LIG    1       -5.679  -6.704   0.153  0.00  0.00    +0.020 C 
ENDBRANCH   1   2
BRANCH   1   8
ATOM      8  O   LIG    1       -4.918  -4.277  -1.195  0.00  0.00    -0.560 OA
ATOM      9  H   LIG    1       -4.494  -4.619  -1.994  0.00  0.00    +0.370 HD
ENDBRANCH   1   8
BRANCH   1  10
ATOM     10  C   LIG    1       -2.827  -4.123   0.007  0.00  0.00    -0.010 C 
BRANCH  10  11
ATOM     11  C   LIG    1       -2.848  -2.593   0.015  0.00  0.00    +0.010 C 
BRANCH  11  12
ATOM     12  C   LIG    1       -1.413  -2.063   0.004  0.00  0.00    +0.000 C 
BRANCH  12  13
ATOM     13  C   LIG    1       -1.433  -0.534   0.013  0.00  0.00    +0.000 C 
BRANCH  13  15
ATOM     14  C   LIG    1       -0.019   1.526   0.010  0.00  0.00    +0.000 C 
ATOM     15  C   LIG    1        0.002  -0.004   0.002  0.00  0.00    -0.010 C 
ENDBRANCH  13  15
ENDBRANCH  12  13
ENDBRANCH  11  12
ENDBRANCH  10  11
ENDBRANCH   1  10
TORSDOF 7
ENDMDL
MODEL      842
REMARK  Name = ZINC000003851205
REMARK                            x       y       z     vdW  Elec       q    Type
REMARK                         _______ _______ _______ _____ _____    ______ ____
ROOT
ATOM      1  C   LIG    1       -4.263  -4.652   0.018  0.00  0.00    +0.210 C 
ENDROOT
BRANCH   1   2
ATOM      2  C   LIG    1       -4.242  -6.178   0.135  0.00  0.00    -0.010 C 
ATOM      3  C   LIG    1       -3.548  -6.570   1.406  0.00  0.00    -0.050 C 
ATOM      4  C   LIG    1       -3.964  -7.501   2.203  0.00  0.00    -0.050 C 
ATOM      5  C   LIG    1       -5.205  -8.313   1.972  0.00  0.00    +0.040 C 
ATOM      6  C   LIG    1       -5.649  -8.192   0.512  0.00  0.00    +0.010 C 
ATOM      7  C   LIG    1       -5.679  -6.705   0.139  0.00  0.00    +0.020 C 
ENDBRANCH   1   2
BRANCH   1   8
ATOM      8  O   LIG    1       -4.918  -4.277  -1.195  0.00  0.00    -0.560 OA
ATOM      9  H   LIG    1       -4.494  -4.619  -1.994  0.00  0.00    +0.370 HD
ENDBRANCH   1   8
BRANCH   1  10
ATOM     10  C   LIG    1       -2.827  -4.123   0.007  0.00  0.00    -0.020 C 
BRANCH  10  11
ATOM     11  C   LIG    1       -2.848  -2.593   0.015  0.00  0.00    +0.010 C 
BRANCH  11  12
ATOM     12  C   LIG    1       -1.413  -2.063   0.004  0.00  0.00    +0.000 C 
BRANCH  12  13
ATOM     13  C   LIG    1       -1.433  -0.534   0.013  0.00  0.00    +0.000 C 
BRANCH  13  15
ATOM     14  C   LIG    1       -0.019   1.526   0.010  0.00  0.00    +0.000 C 
ATOM     15  C   LIG    1        0.002  -0.004   0.002  0.00  0.00    -0.010 C 
ENDBRANCH  13  15
ENDBRANCH  12  13
ENDBRANCH  11  12
ENDBRANCH  10  11
ENDBRANCH   1  10
TORSDOF 7
ENDMDL
MODEL      843
REMARK  Name = ZINC000003851207
REMARK                            x       y       z     vdW  Elec       q    Type
REMARK                         _______ _______ _______ _____ _____    ______ ____
ROOT
ATOM      1  C   LIG    1       -4.263  -4.652   0.018  0.00  0.00    +0.210 C 
ENDROOT
BRANCH   1   2
ATOM      2  C   LIG    1       -4.245  -6.176  -0.116  0.00  0.00    -0.010 C 
ATOM      3  C   LIG    1       -3.575  -6.555  -1.405  0.00  0.00    -0.050 C 
ATOM      4  C   LIG    1       -4.006  -7.478  -2.203  0.00  0.00    -0.050 C 
ATOM      5  C   LIG    1       -5.243  -8.291  -1.957  0.00  0.00    +0.040 C 
ATOM      6  C   LIG    1       -5.660  -8.187  -0.489  0.00  0.00    +0.010 C 
ATOM      7  C   LIG    1       -5.681  -6.704  -0.098  0.00  0.00    +0.020 C 
ENDBRANCH   1   2
BRANCH   1   8
ATOM      8  O   LIG    1       -4.895  -4.290   1.247  0.00  0.00    -0.560 OA
ATOM      9  H   LIG    1       -4.455  -4.640   2.034  0.00  0.00    +0.370 HD
ENDBRANCH   1   8
BRANCH   1  10
ATOM     10  C   LIG    1       -2.827  -4.123   0.007  0.00  0.00    -0.020 C 
BRANCH  10  11
ATOM     11  C   LIG    1       -2.848  -2.593   0.015  0.00  0.00    +0.010 C 
BRANCH  11  12
ATOM     12  C   LIG    1       -1.413  -2.063   0.004  0.00  0.00    +0.000 C 
BRANCH  12  13
ATOM     13  C   LIG    1       -1.433  -0.534   0.013  0.00  0.00    +0.000 C 
BRANCH  13  15
ATOM     14  C   LIG    1       -0.019   1.526   0.010  0.00  0.00    +0.000 C 
ATOM     15  C   LIG    1        0.002  -0.004   0.002  0.00  0.00    -0.010 C 
ENDBRANCH  13  15
ENDBRANCH  12  13
ENDBRANCH  11  12
ENDBRANCH  10  11
ENDBRANCH   1  10
TORSDOF 7
ENDMDL
MODEL      844
REMARK  Name = ZINC000002508102
REMARK                            x       y       z     vdW  Elec       q    Type
REMARK                         _______ _______ _______ _____ _____    ______ ____
ROOT
ATOM      1  C   LIG    1        2.264  -4.584   3.704  0.00  0.00    +0.200 C 
ENDROOT
BRANCH   1   2
ATOM      2  O   LIG    1        3.635  -4.187   3.636  0.00  0.00    -0.560 OA
ATOM      3  H   LIG    1        4.105  -4.529   2.863  0.00  0.00    +0.370 HD
ENDBRANCH   1   2
BRANCH   1   4
ATOM      4  C   LIG    1        1.524  -4.077   2.464  0.00  0.00    -0.020 C 
BRANCH   4   5
ATOM      5  C   LIG    1        1.503  -2.548   2.473  0.00  0.00    +0.010 C 
BRANCH   5   6
ATOM      6  C   LIG    1        0.763  -2.041   1.233  0.00  0.00    +0.000 C 
BRANCH   6   7
ATOM      7  C   LIG    1        0.742  -0.511   1.242  0.00  0.00    +0.000 C 
BRANCH   7   9
ATOM      8  C   LIG    1       -0.019   1.526   0.010  0.00  0.00    +0.000 C 
ATOM      9  C   LIG    1        0.002  -0.004   0.002  0.00  0.00    -0.010 C 
ENDBRANCH   7   9
ENDBRANCH   6   7
ENDBRANCH   5   6
ENDBRANCH   4   5
ENDBRANCH   1   4
BRANCH   1  10
ATOM     10  C   LIG    1        2.177  -6.111   3.761  0.00  0.00    -0.020 C 
BRANCH  10  11
ATOM     11  C   LIG    1        2.808  -6.609   5.063  0.00  0.00    +0.010 C 
BRANCH  11  12
ATOM     12  C   LIG    1        2.721  -8.136   5.120  0.00  0.00    -0.010 C 
ATOM     13  C   LIG    1        3.352  -8.634   6.421  0.00  0.00    +0.000 C 
ENDBRANCH  11  12
ENDBRANCH  10  11
ENDBRANCH   1  10
TORSDOF 9
ENDMDL
MODEL      845
REMARK  Name = ZINC000043199410
REMARK                            x       y       z     vdW  Elec       q    Type
REMARK                         _______ _______ _______ _____ _____    ______ ____
ROOT
ATOM      1  C   LIG    1       -4.241  -4.644   0.018  0.00  0.00    -0.190 A 
ATOM      2  C   LIG    1       -4.962  -4.906  -1.081  0.00  0.00    -0.030 A 
ATOM      3  C   LIG    1       -6.230  -5.376  -0.849  0.00  0.00    +0.100 A 
ATOM      4  C   LIG    1       -6.528  -5.491   0.485  0.00  0.00    -0.340 A 
ATOM      5  S   LIG    1       -5.134  -4.987   1.430  0.00  0.00    +0.250 S 
ENDROOT
BRANCH   4   6
ATOM      6  C   LIG    1       -7.756  -5.947   1.014  0.00  0.00    +0.520 C 
ATOM      7  O   LIG    1       -7.913  -6.009   2.217  0.00  0.00    -0.470 OA
ENDBRANCH   4   6
BRANCH   1   8
ATOM      8  C   LIG    1       -2.827  -4.123   0.007  0.00  0.00    +0.110 C 
BRANCH   8   9
ATOM      9  C   LIG    1       -2.848  -2.593   0.015  0.00  0.00    +0.020 C 
BRANCH   9  10
ATOM     10  C   LIG    1       -1.413  -2.063   0.004  0.00  0.00    +0.000 C 
BRANCH  10  11
ATOM     11  C   LIG    1       -1.433  -0.534   0.013  0.00  0.00    +0.000 C 
BRANCH  11  13
ATOM     12  C   LIG    1       -0.019   1.526   0.010  0.00  0.00    +0.000 C 
ATOM     13  C   LIG    1        0.002  -0.004   0.002  0.00  0.00    -0.010 C 
ENDBRANCH  11  13
ENDBRANCH  10  11
ENDBRANCH   9  10
ENDBRANCH   8   9
ENDBRANCH   1   8
TORSDOF 6
ENDMDL
MODEL      846
REMARK  Name = ZINC000001845981
REMARK                            x       y       z     vdW  Elec       q    Type
REMARK                         _______ _______ _______ _____ _____    ______ ____
ROOT
ATOM      1  C   LIG    1       -2.362   0.089  -0.780  0.00  0.00    +0.090 C 
ATOM      2  C   LIG    1       -1.128  -0.674  -0.372  0.00  0.00    -0.090 A 
ATOM      3  C   LIG    1       -0.012  -0.667  -1.188  0.00  0.00    +0.000 A 
ATOM      4  C   LIG    1        1.125  -1.365  -0.820  0.00  0.00    +0.010 A 
ATOM      5  C   LIG    1        1.150  -2.072   0.365  0.00  0.00    +0.010 A 
ATOM      6  C   LIG    1        0.028  -2.082   1.192  0.00  0.00    -0.040 A 
ATOM      7  C   LIG    1       -1.112  -1.373   0.818  0.00  0.00    +0.010 A 
ENDROOT
BRANCH   6   8
ATOM      8  C   LIG    1        0.048  -2.840   2.467  0.00  0.00    -0.050 A 
ATOM      9  C   LIG    1        1.033  -2.582   3.418  0.00  0.00    +0.020 A 
ATOM     10  C   LIG    1        1.048  -3.291   4.603  0.00  0.00    +0.000 A 
ATOM     11  C   LIG    1        0.087  -4.255   4.846  0.00  0.00    +0.010 A 
ATOM     12  C   LIG    1       -0.894  -4.515   3.906  0.00  0.00    +0.000 A 
ATOM     13  C   LIG    1       -0.921  -3.809   2.720  0.00  0.00    -0.070 A 
ATOM     14  C   LIG    1       -1.990  -4.094   1.697  0.00  0.00    +0.090 C 
ENDBRANCH   6   8
TORSDOF 1
ENDMDL
MODEL      847
REMARK  Name = ZINC000002031557
REMARK                            x       y       z     vdW  Elec       q    Type
REMARK                         _______ _______ _______ _____ _____    ______ ____
ROOT
ATOM      1  C   LIG    1       -0.018   1.503   0.010  0.00  0.00    +0.090 C 
ATOM      2  C   LIG    1        0.002  -0.004   0.002  0.00  0.00    -0.080 A 
ATOM      3  C   LIG    1        0.006  -0.688  -1.200  0.00  0.00    +0.000 A 
ATOM      4  C   LIG    1        0.025  -2.071  -1.215  0.00  0.00    +0.020 A 
ATOM      5  C   LIG    1        0.040  -2.776  -0.029  0.00  0.00    +0.000 A 
ATOM      6  C   LIG    1        0.036  -2.092   1.185  0.00  0.00    -0.040 A 
ATOM      7  C   LIG    1        0.023  -0.699   1.194  0.00  0.00    +0.010 A 
ENDROOT
BRANCH   6   8
ATOM      8  C   LIG    1        0.053  -2.845   2.464  0.00  0.00    -0.050 A 
ATOM      9  C   LIG    1        0.044  -2.162   3.678  0.00  0.00    +0.010 A 
ATOM     10  C   LIG    1        0.059  -2.867   4.864  0.00  0.00    +0.000 A 
ATOM     11  C   LIG    1        0.083  -4.250   4.849  0.00  0.00    +0.000 A 
ATOM     12  C   LIG    1        0.092  -4.934   3.647  0.00  0.00    +0.000 A 
ATOM     13  C   LIG    1        0.071  -4.239   2.455  0.00  0.00    +0.020 A 
ENDBRANCH   6   8
TORSDOF 1
ENDMDL
MODEL      848
REMARK  Name = ZINC000001760823
REMARK                            x       y       z     vdW  Elec       q    Type
REMARK                         _______ _______ _______ _____ _____    ______ ____
ROOT
ATOM      1  C   LIG    1       -2.827  -4.123   0.007  0.00  0.00    +0.060 C 
ENDROOT
BRANCH   1   2
ATOM      2  C   LIG    1       -4.241  -4.644   0.018  0.00  0.00    -0.080 A 
ATOM      3  C   LIG    1       -4.880  -4.885   1.220  0.00  0.00    +0.000 A 
ATOM      4  C   LIG    1       -6.177  -5.363   1.230  0.00  0.00    +0.000 A 
ATOM      5  C   LIG    1       -6.835  -5.601   0.037  0.00  0.00    -0.010 A 
ATOM      6  C   LIG    1       -6.196  -5.360  -1.165  0.00  0.00    +0.000 A 
ATOM      7  C   LIG    1       -4.901  -4.877  -1.175  0.00  0.00    +0.000 A 
ENDBRANCH   1   2
BRANCH   1   8
ATOM      8  C   LIG    1       -2.848  -2.593   0.015  0.00  0.00    +0.010 C 
BRANCH   8   9
ATOM      9  C   LIG    1       -1.413  -2.063   0.004  0.00  0.00    +0.000 C 
BRANCH   9  10
ATOM     10  C   LIG    1       -1.433  -0.534   0.013  0.00  0.00    +0.000 C 
BRANCH  10  12
ATOM     11  C   LIG    1       -0.019   1.526   0.010  0.00  0.00    +0.000 C 
ATOM     12  C   LIG    1        0.002  -0.004   0.002  0.00  0.00    -0.010 C 
ENDBRANCH  10  12
ENDBRANCH   9  10
ENDBRANCH   8   9
ENDBRANCH   1   8
TORSDOF 5
ENDMDL
MODEL      849
REMARK  Name = ZINC000002514238
REMARK                            x       y       z     vdW  Elec       q    Type
REMARK                         _______ _______ _______ _____ _____    ______ ____
ROOT
ATOM      1  C   LIG    1       -0.711   1.587   0.297  0.00  0.00    +0.080 C 
ATOM      2  C   LIG    1       -0.399   0.123   0.126  0.00  0.00    -0.050 A 
ATOM      3  C   LIG    1       -0.359  -0.433  -1.135  0.00  0.00    +0.000 A 
ATOM      4  C   LIG    1       -0.072  -1.778  -1.293  0.00  0.00    +0.030 A 
ATOM      5  C   LIG    1        0.177  -2.575  -0.189  0.00  0.00    +0.000 A 
ATOM      6  C   LIG    1        0.140  -2.033   1.078  0.00  0.00    -0.050 A 
ATOM      7  C   LIG    1        0.411  -2.903   2.279  0.00  0.00    +0.080 C 
ATOM      8  C   LIG    1       -0.142  -0.674   1.246  0.00  0.00    -0.150 A 
ENDROOT
BRANCH   8   9
ATOM      9  C   LIG    1       -0.182  -0.088   2.596  0.00  0.00    +0.420 C 
ATOM     10  O   LIG    1       -1.220  -0.082   3.224  0.00  0.00    -0.440 OA
BRANCH   9  11
ATOM     11  C   LIG    1        1.066   0.504   3.198  0.00  0.00    -0.110 C 
ATOM     12  C   LIG    1        1.637   1.561   2.251  0.00  0.00    +0.060 C 
ATOM     13  C   LIG    1        2.102  -0.601   3.413  0.00  0.00    +0.060 C 
ATOM     14  C   LIG    1        0.726   1.153   4.541  0.00  0.00    +0.050 C 
ENDBRANCH   9  11
ENDBRANCH   8   9
TORSDOF 2
ENDMDL
MODEL      850
REMARK  Name = ZINC000001674683
REMARK                            x       y       z     vdW  Elec       q    Type
REMARK                         _______ _______ _______ _____ _____    ______ ____
ROOT
ATOM      1  C   LIG    1       -0.018   1.503   0.010  0.00  0.00    +0.090 C 
ATOM      2  C   LIG    1        0.002  -0.004   0.002  0.00  0.00    -0.080 A 
ATOM      3  C   LIG    1        0.006  -0.688  -1.200  0.00  0.00    +0.000 A 
ATOM      4  C   LIG    1        0.025  -2.071  -1.217  0.00  0.00    +0.010 A 
ATOM      5  C   LIG    1        0.040  -2.778  -0.032  0.00  0.00    +0.000 A 
ATOM      6  C   LIG    1        0.037  -2.094   1.185  0.00  0.00    -0.050 A 
ATOM      7  C   LIG    1        0.023  -0.699   1.194  0.00  0.00    +0.010 A 
ENDROOT
BRANCH   6   8
ATOM      8  C   LIG    1        0.053  -2.845   2.458  0.00  0.00    -0.090 C 
ATOM      9  C   LIG    1        1.102  -2.719   3.235  0.00  0.00    -0.040 C 
ATOM     10  C   LIG    1        1.259  -3.427   4.549  0.00  0.00    +0.060 C 
ATOM     11  C   LIG    1       -0.097  -3.943   5.034  0.00  0.00    +0.010 C 
ATOM     12  C   LIG    1       -0.767  -4.706   3.885  0.00  0.00    +0.020 C 
ATOM     13  C   LIG    1       -1.134  -3.702   2.788  0.00  0.00    +0.060 C 
ENDBRANCH   6   8
TORSDOF 1
ENDMDL
MODEL      851
REMARK  Name = ZINC000019879236
REMARK                            x       y       z     vdW  Elec       q    Type
REMARK                         _______ _______ _______ _____ _____    ______ ____
ROOT
ATOM      1  C   LIG    1        0.054  -2.844   2.489  0.00  0.00    +0.310 C 
ENDROOT
BRANCH   1   7
ATOM      2  C   LIG    1       -0.018   1.503   0.010  0.00  0.00    +0.090 C 
ATOM      3  C   LIG    1        0.002  -0.004   0.002  0.00  0.00    -0.090 A 
ATOM      4  C   LIG    1        0.006  -0.689  -1.199  0.00  0.00    +0.010 A 
ATOM      5  C   LIG    1        0.025  -2.071  -1.206  0.00  0.00    +0.000 A 
ATOM      6  C   LIG    1        0.040  -2.768  -0.013  0.00  0.00    +0.010 A 
ATOM      7  C   LIG    1        0.037  -2.084   1.188  0.00  0.00    -0.110 A 
ATOM      8  C   LIG    1        0.023  -0.702   1.196  0.00  0.00    +0.020 A 
ENDBRANCH   1   7
BRANCH   1   9
ATOM      9  N   LIG    1        1.440  -3.073   2.903  0.00  0.00    -0.740 N 
ATOM     10  H   LIG    1        2.171  -2.745   2.355  0.00  0.00    +0.400 HD
BRANCH   9  11
ATOM     11  C   LIG    1        1.710  -3.763   4.088  0.00  0.00    +0.210 A 
ATOM     12  C   LIG    1        0.666  -4.237   4.870  0.00  0.00    -0.080 A 
ATOM     13  C   LIG    1        0.936  -4.919   6.040  0.00  0.00    +0.050 A 
ATOM     14  C   LIG    1        2.246  -5.129   6.433  0.00  0.00    -0.060 A 
ATOM     15  C   LIG    1        3.288  -4.658   5.656  0.00  0.00    +0.050 A 
ATOM     16  C   LIG    1        3.024  -3.980   4.482  0.00  0.00    -0.080 A 
ENDBRANCH   9  11
ENDBRANCH   1   9
TORSDOF 3
ENDMDL
MODEL      852
REMARK  Name = ZINC000057217740
REMARK                            x       y       z     vdW  Elec       q    Type
REMARK                         _______ _______ _______ _____ _____    ______ ____
ROOT
ATOM      1  C   LIG    1       -0.136   1.606   0.139  0.00  0.00    +0.080 C 
ATOM      2  C   LIG    1        0.002   0.107   0.072  0.00  0.00    -0.040 A 
ATOM      3  C   LIG    1        0.136  -0.520  -1.153  0.00  0.00    -0.060 A 
ATOM      4  C   LIG    1        0.263  -1.896  -1.220  0.00  0.00    +0.050 A 
ATOM      5  C   LIG    1        0.255  -2.648  -0.061  0.00  0.00    -0.090 A 
ATOM      6  C   LIG    1        0.120  -2.021   1.171  0.00  0.00    +0.230 A 
ATOM      7  C   LIG    1       -0.001  -0.639   1.234  0.00  0.00    -0.070 A 
ENDROOT
BRANCH   6   8
ATOM      8  N   LIG    1        0.112  -2.779   2.344  0.00  0.00    -0.620 N 
BRANCH   8   9
ATOM      9  C   LIG    1        0.114  -2.111   3.648  0.00  0.00    +0.240 C 
ATOM     10  C   LIG    1       -1.185  -1.322   3.819  0.00  0.00    +0.010 C 
ATOM     11  C   LIG    1        1.306  -1.154   3.729  0.00  0.00    +0.010 C 
ENDBRANCH   8   9
BRANCH   8  12
ATOM     12  C   LIG    1        0.102  -4.242   2.272  0.00  0.00    +0.230 C 
ATOM     13  C   LIG    1       -1.201  -4.774   2.872  0.00  0.00    +0.020 C 
ATOM     14  C   LIG    1        1.291  -4.800   3.057  0.00  0.00    +0.030 C 
ENDBRANCH   8  12
ENDBRANCH   6   8
TORSDOF 3
ENDMDL
MODEL      853
REMARK  Name = ZINC000063361048
REMARK                            x       y       z     vdW  Elec       q    Type
REMARK                         _______ _______ _______ _____ _____    ______ ____
ROOT
ATOM      1  C   LIG    1       -0.018   1.503   0.010  0.00  0.00    +0.120 C 
ATOM      2  C   LIG    1        0.002  -0.004   0.002  0.00  0.00    -0.020 A 
ATOM      3  C   LIG    1        0.006  -0.688  -1.199  0.00  0.00    +0.020 A 
ATOM      4  C   LIG    1        0.025  -2.071  -1.207  0.00  0.00    +0.070 A 
ATOM      5  C   LIG    1        0.040  -2.769  -0.015  0.00  0.00    +0.030 A 
ATOM      6  C   LIG    1        0.036  -2.085   1.188  0.00  0.00    +0.010 A 
ATOM      7 CL   LIG    1        0.056  -2.961   2.686  0.00  0.00    -0.040 Cl
ATOM      8  C   LIG    1        0.023  -0.702   1.195  0.00  0.00    -0.180 A 
ENDROOT
BRANCH   8   9
ATOM      9  C   LIG    1        0.019   0.045   2.505  0.00  0.00    +0.510 C 
ATOM     10  F   LIG    1       -1.301   0.263   2.913  0.00  0.00    -0.170 F 
ATOM     11  F   LIG    1        0.666   1.274   2.342  0.00  0.00    -0.170 F 
ATOM     12  F   LIG    1        0.688  -0.710   3.474  0.00  0.00    -0.170 F 
ENDBRANCH   8   9
TORSDOF 1
ENDMDL
MODEL      854
REMARK  Name = ZINC000039189053
REMARK                            x       y       z     vdW  Elec       q    Type
REMARK                         _______ _______ _______ _____ _____    ______ ____
ROOT
ATOM      1  C   LIG    1        2.078  -4.553  -3.590  0.00  0.00    +0.140 A 
ATOM      2  C   LIG    1        2.645  -3.785  -4.596  0.00  0.00    -0.060 A 
ATOM      3  C   LIG    1        3.259  -4.400  -5.671  0.00  0.00    +0.070 A 
ATOM      4  C   LIG    1        3.307  -5.780  -5.744  0.00  0.00    -0.080 A 
ATOM      5  C   LIG    1        2.742  -6.548  -4.740  0.00  0.00    +0.070 A 
ATOM      6 CL   LIG    1        4.078  -6.551  -7.095  0.00  0.00    -0.070 Cl
ATOM      7  C   LIG    1        2.133  -5.937  -3.662  0.00  0.00    +0.000 A 
ENDROOT
BRANCH   1   8
ATOM      8  O   LIG    1        1.474  -3.950  -2.532  0.00  0.00    -0.310 OA
BRANCH   8   9
ATOM      9  C   LIG    1        1.455  -2.521  -2.524  0.00  0.00    +0.180 C 
BRANCH   9  10
ATOM     10  C   LIG    1        0.739  -2.027  -1.265  0.00  0.00    +0.040 C 
BRANCH  10  11
ATOM     11  C   LIG    1        0.718  -0.497  -1.257  0.00  0.00    +0.020 C 
BRANCH  11  13
ATOM     12  C   LIG    1       -0.019   1.526   0.010  0.00  0.00    +0.010 C 
ATOM     13  C   LIG    1        0.002  -0.004   0.002  0.00  0.00    +0.000 C 
ENDBRANCH  11  13
ENDBRANCH  10  11
ENDBRANCH   9  10
ENDBRANCH   8   9
ENDBRANCH   1   8
TORSDOF 5
ENDMDL
MODEL      855
REMARK  Name = ZINC000001586390
REMARK                            x       y       z     vdW  Elec       q    Type
REMARK                         _______ _______ _______ _____ _____    ______ ____
ROOT
ATOM      1  N   LIG    1        0.052  -2.796   2.391  0.00  0.00    -0.750 N 
ATOM      2  H   LIG    1        0.050  -2.318   3.234  0.00  0.00    +0.400 HD
ENDROOT
BRANCH   1   8
ATOM      3  C   LIG    1       -0.018   1.503   0.010  0.00  0.00    +0.090 C 
ATOM      4  C   LIG    1        0.002  -0.004   0.002  0.00  0.00    -0.040 A 
ATOM      5  C   LIG    1        0.006  -0.688  -1.200  0.00  0.00    -0.060 A 
ATOM      6  C   LIG    1        0.025  -2.071  -1.212  0.00  0.00    +0.050 A 
ATOM      7  C   LIG    1        0.040  -2.773  -0.023  0.00  0.00    -0.080 A 
ATOM      8  C   LIG    1        0.036  -2.089   1.186  0.00  0.00    +0.220 A 
ATOM      9  C   LIG    1        0.023  -0.700   1.195  0.00  0.00    -0.080 A 
ENDBRANCH   1   8
BRANCH   1  10
ATOM     10  C   LIG    1        0.072  -4.261   2.380  0.00  0.00    +0.310 C 
BRANCH  10  11
ATOM     11  C   LIG    1        0.086  -4.774   3.797  0.00  0.00    -0.110 A 
ATOM     12  C   LIG    1        1.290  -4.987   4.443  0.00  0.00    +0.020 A 
ATOM     13  C   LIG    1        1.303  -5.457   5.742  0.00  0.00    +0.000 A 
ATOM     14  C   LIG    1        0.112  -5.714   6.396  0.00  0.00    +0.010 A 
ATOM     15  C   LIG    1       -1.091  -5.500   5.751  0.00  0.00    +0.000 A 
ATOM     16  C   LIG    1       -1.104  -5.026   4.452  0.00  0.00    +0.020 A 
ENDBRANCH  10  11
ENDBRANCH   1  10
TORSDOF 3
ENDMDL
MODEL      856
REMARK  Name = ZINC000019772144
REMARK                            x       y       z     vdW  Elec       q    Type
REMARK                         _______ _______ _______ _____ _____    ______ ____
ROOT
ATOM      1  N   LIG    1        0.052  -2.796   2.391  0.00  0.00    -0.750 N 
ATOM      2  H   LIG    1        0.050  -2.318   3.234  0.00  0.00    +0.400 HD
ENDROOT
BRANCH   1   8
ATOM      3  C   LIG    1       -0.018   1.503   0.010  0.00  0.00    +0.080 C 
ATOM      4  C   LIG    1        0.002  -0.004   0.002  0.00  0.00    -0.040 A 
ATOM      5  C   LIG    1        0.006  -0.688  -1.200  0.00  0.00    -0.060 A 
ATOM      6  C   LIG    1        0.025  -2.071  -1.212  0.00  0.00    +0.050 A 
ATOM      7  C   LIG    1        0.040  -2.773  -0.023  0.00  0.00    -0.090 A 
ATOM      8  C   LIG    1        0.036  -2.089   1.186  0.00  0.00    +0.220 A 
ATOM      9  C   LIG    1        0.023  -0.700   1.195  0.00  0.00    -0.080 A 
ENDBRANCH   1   8
BRANCH   1  10
ATOM     10  C   LIG    1        0.072  -4.261   2.380  0.00  0.00    +0.230 C 
ATOM     11  C   LIG    1        1.516  -4.750   2.243  0.00  0.00    +0.000 C 
ATOM     12  C   LIG    1        1.537  -6.280   2.232  0.00  0.00    +0.000 C 
ATOM     13  C   LIG    1        0.941  -6.808   3.538  0.00  0.00    +0.000 C 
ATOM     14  C   LIG    1       -0.502  -6.319   3.675  0.00  0.00    +0.010 C 
ATOM     15  C   LIG    1       -0.524  -4.789   3.686  0.00  0.00    +0.010 C 
ENDBRANCH   1  10
TORSDOF 2
ENDMDL
MODEL      857
REMARK  Name = ZINC000257373302
REMARK                            x       y       z     vdW  Elec       q    Type
REMARK                         _______ _______ _______ _____ _____    ______ ____
ROOT
ATOM      1  N   LIG    1        0.104  -2.801   2.346  0.00  0.00    -0.740 N 
ATOM      2  H   LIG    1        0.245  -2.306   3.168  0.00  0.00    +0.400 HD
ENDROOT
BRANCH   1   8
ATOM      3  C   LIG    1       -0.139  -2.937  -2.561  0.00  0.00    +0.080 C 
ATOM      4  C   LIG    1       -0.082  -2.164  -1.269  0.00  0.00    -0.040 A 
ATOM      5  C   LIG    1       -0.097  -0.781  -1.290  0.00  0.00    -0.060 A 
ATOM      6  C   LIG    1       -0.045  -0.068  -0.106  0.00  0.00    +0.050 A 
ATOM      7  C   LIG    1        0.022  -0.734   1.101  0.00  0.00    -0.080 A 
ATOM      8  C   LIG    1        0.037  -2.123   1.126  0.00  0.00    +0.220 A 
ATOM      9  C   LIG    1       -0.021  -2.837  -0.064  0.00  0.00    -0.070 A 
ENDBRANCH   1   8
BRANCH   1  10
ATOM     10  C   LIG    1       -0.038  -4.258   2.383  0.00  0.00    +0.180 C 
ATOM     11  C   LIG    1        1.148  -4.905   1.665  0.00  0.00    +0.020 C 
ATOM     12  C   LIG    1       -1.339  -4.662   1.685  0.00  0.00    +0.030 C 
BRANCH  10  13
ATOM     13  C   LIG    1       -0.073  -4.731   3.837  0.00  0.00    -0.030 C 
ATOM     14  C   LIG    1        1.275  -4.439   4.501  0.00  0.00    +0.020 C 
ATOM     15  C   LIG    1       -0.346  -6.236   3.879  0.00  0.00    +0.030 C 
ENDBRANCH  10  13
ENDBRANCH   1  10
TORSDOF 3
ENDMDL
MODEL      858
REMARK  Name = ZINC000002039769
REMARK                            x       y       z     vdW  Elec       q    Type
REMARK                         _______ _______ _______ _____ _____    ______ ____
ROOT
ATOM      1  N   LIG    1        0.052  -2.797   2.391  0.00  0.00    -0.690 N 
ATOM      2  H   LIG    1        0.485  -3.663   2.435  0.00  0.00    +0.410 HD
ENDROOT
BRANCH   1   8
ATOM      3  C   LIG    1       -0.201   1.415  -0.131  0.00  0.00    +0.090 C 
ATOM      4  C   LIG    1       -0.183  -0.092  -0.086  0.00  0.00    -0.050 A 
ATOM      5  C   LIG    1       -0.276  -0.819  -1.259  0.00  0.00    -0.030 A 
ATOM      6  C   LIG    1       -0.261  -2.201  -1.222  0.00  0.00    +0.040 A 
ATOM      7  C   LIG    1       -0.152  -2.860  -0.014  0.00  0.00    -0.050 A 
ATOM      8  C   LIG    1       -0.058  -2.133   1.166  0.00  0.00    +0.180 A 
ATOM      9  C   LIG    1       -0.069  -0.745   1.126  0.00  0.00    -0.040 A 
ENDBRANCH   1   8
BRANCH   1  10
ATOM     10  C   LIG    1       -0.461  -2.212   3.551  0.00  0.00    +0.180 A 
ATOM     11  C   LIG    1       -1.565  -1.371   3.477  0.00  0.00    -0.040 A 
ATOM     12  C   LIG    1       -2.070  -0.794   4.626  0.00  0.00    +0.030 A 
ATOM     13  C   LIG    1       -1.478  -1.053   5.849  0.00  0.00    -0.030 A 
ATOM     14  C   LIG    1       -0.379  -1.889   5.926  0.00  0.00    +0.030 A 
ATOM     15  C   LIG    1        0.127  -2.474   4.782  0.00  0.00    -0.050 A 
ENDBRANCH   1  10
TORSDOF 2
ENDMDL
MODEL      859
REMARK  Name = ZINC000019964234
REMARK                            x       y       z     vdW  Elec       q    Type
REMARK                         _______ _______ _______ _____ _____    ______ ____
ROOT
ATOM      1  C   LIG    1       -0.018   1.503   0.010  0.00  0.00    +0.090 C 
ATOM      2  C   LIG    1        0.002  -0.004   0.002  0.00  0.00    -0.040 A 
ATOM      3  C   LIG    1        0.006  -0.688  -1.200  0.00  0.00    -0.060 A 
ATOM      4  C   LIG    1        0.025  -2.071  -1.212  0.00  0.00    +0.050 A 
ATOM      5  C   LIG    1        0.040  -2.773  -0.023  0.00  0.00    -0.080 A 
ATOM      6  C   LIG    1        0.036  -2.089   1.186  0.00  0.00    +0.220 A 
ATOM      7  C   LIG    1        0.023  -0.700   1.195  0.00  0.00    -0.170 A 
ATOM      8  C   LIG    1        0.019   0.046   2.504  0.00  0.00    +0.080 C 
ENDROOT
BRANCH   6   9
ATOM      9  N   LIG    1        0.052  -2.796   2.391  0.00  0.00    -0.740 N 
ATOM     10  H   LIG    1        0.050  -2.318   3.234  0.00  0.00    +0.400 HD
BRANCH   9  11
ATOM     11  C   LIG    1        0.072  -4.261   2.380  0.00  0.00    +0.230 C 
ATOM     12  C   LIG    1        1.528  -4.769   2.314  0.00  0.00    +0.000 C 
ATOM     13  C   LIG    1        1.901  -5.045   3.792  0.00  0.00    +0.020 C 
ATOM     14  C   LIG    1        0.589  -5.627   4.373  0.00  0.00    +0.010 C 
ATOM     15  C   LIG    1       -0.525  -4.806   3.689  0.00  0.00    +0.010 C 
ENDBRANCH   9  11
ENDBRANCH   6   9
TORSDOF 2
ENDMDL
MODEL      860
REMARK  Name = ZINC000041051139
REMARK                            x       y       z     vdW  Elec       q    Type
REMARK                         _______ _______ _______ _____ _____    ______ ____
ROOT
ATOM      1  C   LIG    1       -0.018   1.503   0.010  0.00  0.00    +0.090 C 
ATOM      2  C   LIG    1        0.002  -0.004   0.002  0.00  0.00    -0.040 A 
ATOM      3  C   LIG    1        0.006  -0.688  -1.200  0.00  0.00    -0.060 A 
ATOM      4  C   LIG    1        0.025  -2.071  -1.212  0.00  0.00    +0.050 A 
ATOM      5  C   LIG    1        0.040  -2.773  -0.023  0.00  0.00    -0.080 A 
ATOM      6  C   LIG    1        0.036  -2.089   1.186  0.00  0.00    +0.220 A 
ATOM      7  C   LIG    1        0.023  -0.700   1.195  0.00  0.00    -0.170 A 
ATOM      8  C   LIG    1        0.019   0.046   2.504  0.00  0.00    +0.070 C 
ENDROOT
BRANCH   6   9
ATOM      9  N   LIG    1        0.052  -2.796   2.391  0.00  0.00    -0.750 N 
ATOM     10  H   LIG    1        0.050  -2.318   3.234  0.00  0.00    +0.400 HD
BRANCH   9  11
ATOM     11  C   LIG    1        0.072  -4.261   2.380  0.00  0.00    +0.250 C 
BRANCH  11  12
ATOM     12  C   LIG    1        0.087  -4.782   3.818  0.00  0.00    -0.080 C 
ATOM     13  C   LIG    1        1.332  -4.260   4.537  0.00  0.00    +0.030 C 
ATOM     14  C   LIG    1        0.108  -6.312   3.807  0.00  0.00    +0.040 C 
ATOM     15  C   LIG    1       -1.166  -4.295   4.549  0.00  0.00    +0.030 C 
ENDBRANCH  11  12
ENDBRANCH   9  11
ENDBRANCH   6   9
TORSDOF 3
ENDMDL
MODEL      861
REMARK  Name = ZINC000003132868
REMARK                            x       y       z     vdW  Elec       q    Type
REMARK                         _______ _______ _______ _____ _____    ______ ____
ROOT
ATOM      1  C   LIG    1       -2.827  -4.123   0.007  0.00  0.00    +0.240 C 
ENDROOT
BRANCH   1   2
ATOM      2  C   LIG    1       -4.237  -4.644  -0.106  0.00  0.00    -0.080 C 
ATOM      3  C   LIG    1       -4.577  -5.396  -1.123  0.00  0.00    -0.010 C 
BRANCH   3   4
ATOM      4  C   LIG    1       -5.987  -5.917  -1.236  0.00  0.00    -0.040 C 
ATOM      5  C   LIG    1       -5.966  -7.447  -1.245  0.00  0.00    +0.040 C 
ATOM      6  C   LIG    1       -6.616  -5.408  -2.535  0.00  0.00    +0.040 C 
ATOM      7  C   LIG    1       -6.810  -5.425  -0.044  0.00  0.00    +0.030 C 
ENDBRANCH   3   4
ENDBRANCH   1   2
BRANCH   1   8
ATOM      8  O   LIG    1       -2.240  -4.598   1.220  0.00  0.00    -0.560 OA
ATOM      9  H   LIG    1       -2.710  -4.323   2.019  0.00  0.00    +0.370 HD
ENDBRANCH   1   8
BRANCH   1  10
ATOM     10  C   LIG    1       -2.848  -2.593   0.015  0.00  0.00    -0.010 C 
BRANCH  10  11
ATOM     11  C   LIG    1       -1.413  -2.063   0.004  0.00  0.00    +0.010 C 
BRANCH  11  12
ATOM     12  C   LIG    1       -1.433  -0.534   0.013  0.00  0.00    +0.000 C 
BRANCH  12  14
ATOM     13  C   LIG    1       -0.019   1.526   0.010  0.00  0.00    +0.000 C 
ATOM     14  C   LIG    1        0.002  -0.004   0.002  0.00  0.00    -0.010 C 
ENDBRANCH  12  14
ENDBRANCH  11  12
ENDBRANCH  10  11
ENDBRANCH   1  10
TORSDOF 7
ENDMDL
MODEL      862
REMARK  Name = ZINC000075838821
REMARK                            x       y       z     vdW  Elec       q    Type
REMARK                         _______ _______ _______ _____ _____    ______ ____
ROOT
ATOM      1  C   LIG    1       -1.412  -0.526   0.013  0.00  0.00    -0.100 A 
ATOM      2  C   LIG    1       -2.259  -0.204   1.056  0.00  0.00    +0.060 A 
ATOM      3  C   LIG    1       -3.557  -0.684   1.066  0.00  0.00    -0.040 A 
ATOM      4  C   LIG    1       -4.007  -1.484   0.032  0.00  0.00    +0.050 A 
ATOM      5  C   LIG    1       -3.161  -1.806  -1.012  0.00  0.00    +0.010 A 
ATOM      6 CL   LIG    1       -4.621  -0.280   2.377  0.00  0.00    -0.060 Cl
ATOM      7  C   LIG    1       -1.864  -1.322  -1.026  0.00  0.00    +0.100 A 
ATOM      8  F   LIG    1       -1.036  -1.637  -2.046  0.00  0.00    -0.130 F 
ENDROOT
BRANCH   1  10
ATOM      9  C   LIG    1       -0.019   1.526   0.010  0.00  0.00    +0.030 C 
ATOM     10  C   LIG    1        0.002  -0.004   0.002  0.00  0.00    +0.030 C 
ATOM     11  C   LIG    1        0.742  -0.511   1.242  0.00  0.00    +0.030 C 
ENDBRANCH   1  10
TORSDOF 1
ENDMDL
MODEL      863
REMARK  Name = ZINC000002038774
REMARK                            x       y       z     vdW  Elec       q    Type
REMARK                         _______ _______ _______ _____ _____    ______ ____
ROOT
ATOM      1  C   LIG    1       -2.848  -2.593   0.015  0.00  0.00    +0.000 C 
ENDROOT
BRANCH   1   2
ATOM      2  C   LIG    1       -2.827  -4.123   0.007  0.00  0.00    -0.020 C 
ATOM      3  C   LIG    1       -2.223  -4.617  -1.309  0.00  0.00    +0.020 C 
BRANCH   2   4
ATOM      4  C   LIG    1       -4.256  -4.653   0.143  0.00  0.00    +0.000 C 
ATOM      5  C   LIG    1       -4.225  -6.178   0.260  0.00  0.00    +0.000 C 
ENDBRANCH   2   4
ENDBRANCH   1   2
BRANCH   1   6
ATOM      6  C   LIG    1       -1.413  -2.063   0.004  0.00  0.00    +0.000 C 
BRANCH   6   7
ATOM      7  C   LIG    1       -1.433  -0.534   0.013  0.00  0.00    +0.000 C 
BRANCH   7   9
ATOM      8  C   LIG    1       -0.019   1.526   0.010  0.00  0.00    +0.000 C 
ATOM      9  C   LIG    1        0.002  -0.004   0.002  0.00  0.00    -0.010 C 
ENDBRANCH   7   9
ENDBRANCH   6   7
ENDBRANCH   1   6
TORSDOF 5
ENDMDL
MODEL      864
REMARK  Name = ZINC000003132866
REMARK                            x       y       z     vdW  Elec       q    Type
REMARK                         _______ _______ _______ _____ _____    ______ ____
ROOT
ATOM      1  C   LIG    1       -2.827  -4.123   0.007  0.00  0.00    +0.240 C 
ENDROOT
BRANCH   1   2
ATOM      2  C   LIG    1       -4.234  -4.645   0.141  0.00  0.00    -0.090 C 
ATOM      3  C   LIG    1       -4.712  -5.479  -0.750  0.00  0.00    -0.010 C 
BRANCH   3   4
ATOM      4  C   LIG    1       -6.119  -6.001  -0.615  0.00  0.00    -0.040 C 
ATOM      5  C   LIG    1       -6.088  -7.526  -0.498  0.00  0.00    +0.040 C 
ATOM      6  C   LIG    1       -6.931  -5.600  -1.848  0.00  0.00    +0.030 C 
ATOM      7  C   LIG    1       -6.766  -5.406   0.637  0.00  0.00    +0.030 C 
ENDBRANCH   3   4
ENDBRANCH   1   2
BRANCH   1   8
ATOM      8  O   LIG    1       -2.263  -4.585  -1.222  0.00  0.00    -0.560 OA
ATOM      9  H   LIG    1       -2.749  -4.302  -2.009  0.00  0.00    +0.370 HD
ENDBRANCH   1   8
BRANCH   1  10
ATOM     10  C   LIG    1       -2.848  -2.593   0.015  0.00  0.00    +0.000 C 
BRANCH  10  11
ATOM     11  C   LIG    1       -1.413  -2.063   0.004  0.00  0.00    +0.010 C 
BRANCH  11  12
ATOM     12  C   LIG    1       -1.433  -0.534   0.013  0.00  0.00    +0.000 C 
BRANCH  12  14
ATOM     13  C   LIG    1       -0.019   1.526   0.010  0.00  0.00    +0.000 C 
ATOM     14  C   LIG    1        0.002  -0.004   0.002  0.00  0.00    -0.010 C 
ENDBRANCH  12  14
ENDBRANCH  11  12
ENDBRANCH  10  11
ENDBRANCH   1  10
TORSDOF 7
ENDMDL
MODEL      865
REMARK  Name = ZINC000002029694
REMARK                            x       y       z     vdW  Elec       q    Type
REMARK                         _______ _______ _______ _____ _____    ______ ____
ROOT
ATOM      1  C   LIG    1        1.523  -4.054   2.464  0.00  0.00    +0.250 A 
ATOM      2  N   LIG    1        2.454  -4.781   1.923  0.00  0.00    -0.480 NA
ATOM      3  C   LIG    1        2.147  -6.094   2.106  0.00  0.00    +0.020 A 
ATOM      4  C   LIG    1        2.769  -7.291   1.746  0.00  0.00    +0.080 A 
ATOM      5  C   LIG    1        2.188  -8.492   2.088  0.00  0.00    +0.020 A 
ATOM      6  C   LIG    1        0.990  -8.519   2.787  0.00  0.00    +0.050 A 
ATOM      7  C   LIG    1        0.364  -7.344   3.148  0.00  0.00    +0.050 A 
ATOM      8  C   LIG    1        0.935  -6.126   2.813  0.00  0.00    +0.010 A 
ATOM      9  O   LIG    1        0.585  -4.837   3.020  0.00  0.00    -0.210 OA
ENDROOT
BRANCH   1  10
ATOM     10  C   LIG    1        1.503  -2.548   2.473  0.00  0.00    +0.180 C 
BRANCH  10  11
ATOM     11  C   LIG    1        0.763  -2.041   1.233  0.00  0.00    +0.020 C 
BRANCH  11  12
ATOM     12  C   LIG    1        0.742  -0.511   1.242  0.00  0.00    +0.020 C 
BRANCH  12  14
ATOM     13  C   LIG    1       -0.019   1.526   0.010  0.00  0.00    +0.000 C 
ATOM     14  C   LIG    1        0.002  -0.004   0.002  0.00  0.00    -0.010 C 
ENDBRANCH  12  14
ENDBRANCH  11  12
ENDBRANCH  10  11
ENDBRANCH   1  10
TORSDOF 4
ENDMDL
MODEL      866
REMARK  Name = ZINC000078279097
REMARK                            x       y       z     vdW  Elec       q    Type
REMARK                         _______ _______ _______ _____ _____    ______ ____
ROOT
ATOM      1  C   LIG    1        1.444  -2.513  -2.505  0.00  0.00    -0.110 A 
ATOM      2  C   LIG    1        0.718  -2.741  -3.666  0.00  0.00    +0.030 A 
ATOM      3  C   LIG    1        1.343  -3.186  -4.810  0.00  0.00    -0.010 A 
ATOM      4  C   LIG    1        2.716  -3.409  -4.805  0.00  0.00    +0.090 A 
ATOM      5  N   LIG    1        3.610  -3.841  -5.759  0.00  0.00    -0.600 N 
ATOM      6  H   LIG    1        3.381  -4.077  -6.671  0.00  0.00    +0.420 HD
ATOM      7  C   LIG    1        4.870  -3.889  -5.228  0.00  0.00    +0.220 A 
ATOM      8  C   LIG    1        4.841  -3.500  -3.943  0.00  0.00    -0.060 A 
ATOM      9  C   LIG    1        3.448  -3.177  -3.626  0.00  0.00    -0.110 A 
ATOM     10  C   LIG    1        2.795  -2.721  -2.479  0.00  0.00    +0.050 A 
ENDROOT
BRANCH   1  11
ATOM     11  C   LIG    1        0.739  -2.027  -1.265  0.00  0.00    +0.060 C 
BRANCH  11  12
ATOM     12  C   LIG    1        0.718  -0.497  -1.257  0.00  0.00    +0.010 C 
BRANCH  12  14
ATOM     13  C   LIG    1       -0.019   1.526   0.010  0.00  0.00    +0.000 C 
ATOM     14  C   LIG    1        0.002  -0.004   0.002  0.00  0.00    -0.010 C 
ENDBRANCH  12  14
ENDBRANCH  11  12
ENDBRANCH   1  11
TORSDOF 3
ENDMDL
MODEL      867
REMARK  Name = ZINC000001518962
REMARK                            x       y       z     vdW  Elec       q    Type
REMARK                         _______ _______ _______ _____ _____    ______ ____
ROOT
ATOM      1  C   LIG    1       -0.018   1.503   0.010  0.00  0.00    +0.090 C 
ATOM      2  C   LIG    1        0.002  -0.004   0.002  0.00  0.00    -0.100 A 
ATOM      3  C   LIG    1        0.006  -0.695  -1.205  0.00  0.00    +0.100 A 
ATOM      4  N   LIG    1       -0.006  -0.300  -2.524  0.00  0.00    -0.590 N 
ATOM      5  H   LIG    1       -0.021   0.621  -2.829  0.00  0.00    +0.410 HD
ATOM      6  C   LIG    1        0.005  -1.399  -3.339  0.00  0.00    +0.100 A 
ATOM      7  C   LIG    1        0.025  -2.518  -2.598  0.00  0.00    -0.050 A 
ATOM      8  C   LIG    1        0.025  -2.102  -1.194  0.00  0.00    -0.100 A 
ATOM      9  C   LIG    1        0.041  -2.789   0.022  0.00  0.00    +0.040 A 
ATOM     10  C   LIG    1        0.037  -2.090   1.196  0.00  0.00    -0.020 A 
ATOM     11  C   LIG    1        0.023  -0.702   1.190  0.00  0.00    +0.020 A 
ENDROOT
BRANCH   6  12
ATOM     12  C   LIG    1       -0.003  -1.359  -4.845  0.00  0.00    -0.010 C 
ATOM     13  C   LIG    1       -1.264  -0.641  -5.330  0.00  0.00    +0.040 C 
ATOM     14  C   LIG    1        0.015  -2.787  -5.394  0.00  0.00    +0.040 C 
ATOM     15  C   LIG    1        1.234  -0.607  -5.342  0.00  0.00    +0.040 C 
ENDBRANCH   6  12
TORSDOF 1
ENDMDL
MODEL      868
REMARK  Name = ZINC000001697731
REMARK                            x       y       z     vdW  Elec       q    Type
REMARK                         _______ _______ _______ _____ _____    ______ ____
ROOT
ATOM      1  C   LIG    1        1.523  -4.054   2.464  0.00  0.00    -0.050 A 
ATOM      2  C   LIG    1        0.496  -4.760   3.066  0.00  0.00    +0.000 A 
ATOM      3  C   LIG    1        0.507  -6.139   3.063  0.00  0.00    +0.070 A 
ATOM      4  C   LIG    1        1.561  -6.824   2.450  0.00  0.00    -0.180 A 
ATOM      5  C   LIG    1        2.595  -6.104   1.843  0.00  0.00    +0.060 A 
ATOM      6  C   LIG    1        2.567  -4.725   1.850  0.00  0.00    +0.000 A 
ENDROOT
BRANCH   4   7
ATOM      7  C   LIG    1        1.581  -8.296   2.441  0.00  0.00    +0.390 C 
ATOM      8  O   LIG    1        0.682  -8.917   2.967  0.00  0.00    -0.460 OA
ATOM      9  C   LIG    1        2.718  -9.030   1.779  0.00  0.00    +0.070 C 
ENDBRANCH   4   7
BRANCH   1  10
ATOM     10  C   LIG    1        1.503  -2.548   2.473  0.00  0.00    +0.070 C 
BRANCH  10  11
ATOM     11  C   LIG    1        0.763  -2.041   1.233  0.00  0.00    +0.010 C 
BRANCH  11  12
ATOM     12  C   LIG    1        0.742  -0.511   1.242  0.00  0.00    +0.000 C 
BRANCH  12  14
ATOM     13  C   LIG    1       -0.019   1.526   0.010  0.00  0.00    +0.000 C 
ATOM     14  C   LIG    1        0.002  -0.004   0.002  0.00  0.00    -0.010 C 
ENDBRANCH  12  14
ENDBRANCH  11  12
ENDBRANCH  10  11
ENDBRANCH   1  10
TORSDOF 5
ENDMDL
MODEL      869
REMARK  Name = ZINC000725241408
REMARK                            x       y       z     vdW  Elec       q    Type
REMARK                         _______ _______ _______ _____ _____    ______ ____
ROOT
ATOM      1  C   LIG    1        1.279  -0.747   0.006  0.00  0.00    -0.050 A 
ATOM      2  C   LIG    1        2.472  -0.032  -0.121  0.00  0.00    +0.020 A 
ATOM      3  C   LIG    1        3.676  -0.699  -0.141  0.00  0.00    +0.020 A 
ATOM      4  C   LIG    1        3.705  -2.090  -0.034  0.00  0.00    -0.040 A 
ATOM      5  C   LIG    1        2.514  -2.805   0.094  0.00  0.00    +0.030 A 
ATOM      6  C   LIG    1        1.309  -2.139   0.119  0.00  0.00    +0.020 A 
ENDROOT
BRANCH   4   7
ATOM      7  C   LIG    1        5.002  -2.808  -0.055  0.00  0.00    -0.100 A 
ATOM      8  C   LIG    1        6.006  -2.488   0.864  0.00  0.00    +0.080 A 
ATOM      9  C   LIG    1        7.199  -3.188   0.802  0.00  0.00    -0.040 A 
ATOM     10  C   LIG    1        7.358  -4.171  -0.157  0.00  0.00    +0.260 A 
ATOM     11  N   LIG    1        6.392  -4.451  -1.011  0.00  0.00    -0.480 NA
ATOM     12  C   LIG    1        5.238  -3.817  -0.987  0.00  0.00    +0.140 A 
ATOM     13  C   LIG    1        4.168  -4.176  -1.986  0.00  0.00    +0.130 C 
ENDBRANCH   4   7
BRANCH   1  15
ATOM     14  C   LIG    1       -0.041   1.290  -0.080  0.00  0.00    +0.040 C 
ATOM     15  C   LIG    1       -0.013  -0.032   0.028  0.00  0.00    +0.000 C 
ENDBRANCH   1  15
TORSDOF 2
ENDMDL
MODEL      870
REMARK  Name = ZINC000725245975
REMARK                            x       y       z     vdW  Elec       q    Type
REMARK                         _______ _______ _______ _____ _____    ______ ____
ROOT
ATOM      1  C   LIG    1       -0.019   1.526   0.010  0.00  0.00    +0.020 C 
ATOM      2  C   LIG    1        0.002  -0.004   0.002  0.00  0.00    -0.060 C 
ATOM      3  C   LIG    1        0.741  -0.503  -1.246  0.00  0.00    +0.020 C 
ATOM      4  C   LIG    1        2.099   0.199  -1.318  0.00  0.00    +0.060 C 
ATOM      5  C   LIG    1        2.805   0.095   0.002  0.00  0.00    -0.030 C 
ATOM      6  C   LIG    1        2.208  -0.214   1.127  0.00  0.00    -0.080 C 
ATOM      7  C   LIG    1       -1.432  -0.538   0.003  0.00  0.00    +0.040 C 
ATOM      8  C   LIG    1        0.741  -0.515   1.240  0.00  0.00    +0.070 C 
ENDROOT
BRANCH   6   9
ATOM      9  C   LIG    1        3.026  -0.270   2.357  0.00  0.00    -0.100 A 
ATOM     10  C   LIG    1        4.040  -1.224   2.494  0.00  0.00    +0.060 A 
ATOM     11  C   LIG    1        4.777  -1.234   3.666  0.00  0.00    -0.030 A 
ATOM     12  C   LIG    1        4.492  -0.309   4.653  0.00  0.00    +0.250 A 
ATOM     13  N   LIG    1        3.529   0.580   4.496  0.00  0.00    -0.480 NA
ATOM     14  C   LIG    1        2.804   0.632   3.398  0.00  0.00    +0.260 A 
ENDBRANCH   6   9
TORSDOF 1
ENDMDL
MODEL      871
REMARK  Name = ZINC000725245057
REMARK                            x       y       z     vdW  Elec       q    Type
REMARK                         _______ _______ _______ _____ _____    ______ ____
ROOT
ATOM      1  C   LIG    1        0.254   1.723  -0.162  0.00  0.00    +0.030 C 
ATOM      2  C   LIG    1        0.043   0.215  -0.015  0.00  0.00    -0.060 C 
ATOM      3  C   LIG    1        0.680  -0.513  -1.206  0.00  0.00    +0.030 C 
ATOM      4  C   LIG    1        2.127  -0.037  -1.348  0.00  0.00    +0.060 C 
ATOM      5  C   LIG    1        2.829  -0.114  -0.023  0.00  0.00    +0.020 C 
ATOM      6  C   LIG    1        2.208  -0.214   1.127  0.00  0.00    -0.100 C 
ATOM      7  C   LIG    1       -1.455  -0.091   0.039  0.00  0.00    +0.040 C 
ATOM      8  C   LIG    1        0.715  -0.276   1.269  0.00  0.00    +0.070 C 
ENDROOT
BRANCH   6   9
ATOM      9  C   LIG    1        3.026  -0.271   2.357  0.00  0.00    +0.170 A 
ATOM     10  C   LIG    1        2.411  -0.499   3.587  0.00  0.00    -0.030 A 
ATOM     11  C   LIG    1        3.191  -0.550   4.730  0.00  0.00    +0.060 A 
ATOM     12  C   LIG    1        4.561  -0.370   4.605  0.00  0.00    -0.050 A 
ATOM     13  C   LIG    1        5.105  -0.148   3.353  0.00  0.00    +0.270 A 
ATOM     14  N   LIG    1        4.342  -0.109   2.280  0.00  0.00    -0.490 NA
ENDBRANCH   6   9
TORSDOF 1
ENDMDL
MODEL      872
REMARK  Name = ZINC000725246375
REMARK                            x       y       z     vdW  Elec       q    Type
REMARK                         _______ _______ _______ _____ _____    ______ ____
ROOT
ATOM      1  C   LIG    1       -0.019   1.526   0.010  0.00  0.00    +0.020 C 
ATOM      2  C   LIG    1        0.002  -0.004   0.002  0.00  0.00    -0.060 C 
ATOM      3  C   LIG    1        0.741  -0.503  -1.246  0.00  0.00    +0.020 C 
ATOM      4  C   LIG    1        2.099   0.199  -1.318  0.00  0.00    +0.060 C 
ATOM      5  C   LIG    1        2.805   0.095   0.002  0.00  0.00    -0.040 C 
ATOM      6  C   LIG    1        2.208  -0.215   1.127  0.00  0.00    -0.060 C 
ATOM      7  C   LIG    1       -1.432  -0.538   0.003  0.00  0.00    +0.040 C 
ATOM      8  C   LIG    1        0.741  -0.515   1.240  0.00  0.00    +0.070 C 
ENDROOT
BRANCH   6   9
ATOM      9  C   LIG    1        3.026  -0.271   2.357  0.00  0.00    -0.150 A 
ATOM     10  C   LIG    1        3.296  -1.368   3.115  0.00  0.00    +0.170 A 
ATOM     11  O   LIG    1        4.073  -0.993   4.141  0.00  0.00    -0.180 OA
ATOM     12  C   LIG    1        4.329   0.323   4.090  0.00  0.00    +0.160 A 
ATOM     13  C   LIG    1        3.721   0.845   3.011  0.00  0.00    -0.060 A 
ENDBRANCH   6   9
TORSDOF 1
ENDMDL
MODEL      873
REMARK  Name = ZINC000725246032
REMARK                            x       y       z     vdW  Elec       q    Type
REMARK                         _______ _______ _______ _____ _____    ______ ____
ROOT
ATOM      1  C   LIG    1       -0.019   1.526   0.010  0.00  0.00    +0.030 C 
ATOM      2  C   LIG    1        0.002  -0.004   0.002  0.00  0.00    -0.060 C 
ATOM      3  C   LIG    1        0.741  -0.503  -1.246  0.00  0.00    +0.030 C 
ATOM      4  C   LIG    1        2.099   0.199  -1.318  0.00  0.00    +0.060 C 
ATOM      5  C   LIG    1        2.805   0.095   0.002  0.00  0.00    -0.020 C 
ATOM      6  C   LIG    1        2.208  -0.214   1.127  0.00  0.00    -0.090 C 
ATOM      7  C   LIG    1       -1.432  -0.538   0.003  0.00  0.00    +0.040 C 
ATOM      8  C   LIG    1        0.741  -0.515   1.240  0.00  0.00    +0.080 C 
ENDROOT
BRANCH   6   9
ATOM      9  C   LIG    1        3.026  -0.271   2.357  0.00  0.00    +0.000 A 
ATOM     10  C   LIG    1        3.219  -1.479   3.038  0.00  0.00    -0.030 A 
ATOM     11  C   LIG    1        3.990  -1.486   4.181  0.00  0.00    +0.260 A 
ATOM     12  N   LIG    1        4.542  -0.376   4.633  0.00  0.00    -0.490 NA
ATOM     13  C   LIG    1        4.386   0.783   4.022  0.00  0.00    +0.260 A 
ATOM     14  C   LIG    1        3.634   0.881   2.869  0.00  0.00    -0.040 A 
ENDBRANCH   6   9
TORSDOF 1
ENDMDL
MODEL      874
REMARK  Name = ZINC000019942738
REMARK                            x       y       z     vdW  Elec       q    Type
REMARK                         _______ _______ _______ _____ _____    ______ ____
ROOT
ATOM      1  C   LIG    1        1.569  -3.871  -2.700  0.00  0.00    +0.230 A 
ATOM      2  C   LIG    1        1.058  -4.786  -1.790  0.00  0.00    -0.060 A 
ATOM      3  C   LIG    1        1.202  -6.141  -2.021  0.00  0.00    +0.060 A 
ATOM      4  C   LIG    1        1.855  -6.586  -3.155  0.00  0.00    -0.040 A 
ATOM      5  C   LIG    1        2.365  -5.677  -4.064  0.00  0.00    +0.070 A 
ATOM      6  C   LIG    1        2.219  -4.321  -3.844  0.00  0.00    -0.120 A 
ATOM      7 CL   LIG    1        2.860  -3.180  -4.985  0.00  0.00    -0.080 Cl
ENDROOT
BRANCH   1   8
ATOM      8  N   LIG    1        1.425  -2.500  -2.470  0.00  0.00    -0.740 N 
ATOM      9  H   LIG    1        1.779  -1.861  -3.109  0.00  0.00    +0.400 HD
BRANCH   8  10
ATOM     10  C   LIG    1        0.739  -2.027  -1.265  0.00  0.00    +0.240 C 
BRANCH  10  11
ATOM     11  C   LIG    1        0.718  -0.497  -1.257  0.00  0.00    +0.010 C 
BRANCH  11  13
ATOM     12  C   LIG    1       -0.019   1.526   0.010  0.00  0.00    +0.010 C 
ATOM     13  C   LIG    1        0.002  -0.004   0.002  0.00  0.00    +0.020 C 
ENDBRANCH  11  13
ENDBRANCH  10  11
ENDBRANCH   8  10
ENDBRANCH   1   8
TORSDOF 4
ENDMDL
MODEL      875
REMARK  Name = ZINC000019877522
REMARK                            x       y       z     vdW  Elec       q    Type
REMARK                         _______ _______ _______ _____ _____    ______ ____
ROOT
ATOM      1  C   LIG    1       -3.023  -3.947   0.010  0.00  0.00    +0.210 A 
ATOM      2  C   LIG    1       -1.957  -4.837   0.001  0.00  0.00    -0.070 A 
ATOM      3  C   LIG    1       -2.194  -6.197  -0.004  0.00  0.00    +0.040 A 
ATOM      4  C   LIG    1       -3.492  -6.674   0.001  0.00  0.00    -0.140 A 
ATOM      5  C   LIG    1       -4.557  -5.791   0.010  0.00  0.00    +0.050 A 
ATOM      6  C   LIG    1       -3.747  -8.159  -0.004  0.00  0.00    +0.070 C 
ATOM      7  C   LIG    1       -4.326  -4.430   0.020  0.00  0.00    -0.160 A 
ATOM      8  C   LIG    1       -5.487  -3.468   0.030  0.00  0.00    +0.090 C 
ENDROOT
BRANCH   1   9
ATOM      9  N   LIG    1       -2.787  -2.571   0.015  0.00  0.00    -0.750 N 
ATOM     10  H   LIG    1       -3.533  -1.950   0.025  0.00  0.00    +0.400 HD
BRANCH   9  11
ATOM     11  C   LIG    1       -1.413  -2.063   0.004  0.00  0.00    +0.240 C 
BRANCH  11  12
ATOM     12  C   LIG    1       -1.433  -0.534   0.013  0.00  0.00    +0.010 C 
BRANCH  12  14
ATOM     13  C   LIG    1       -0.019   1.526   0.010  0.00  0.00    +0.010 C 
ATOM     14  C   LIG    1        0.002  -0.004   0.002  0.00  0.00    +0.000 C 
ENDBRANCH  12  14
ENDBRANCH  11  12
ENDBRANCH   9  11
ENDBRANCH   1   9
TORSDOF 4
ENDMDL
MODEL      876
REMARK  Name = ZINC000019953037
REMARK                            x       y       z     vdW  Elec       q    Type
REMARK                         _______ _______ _______ _____ _____    ______ ____
ROOT
ATOM      1  C   LIG    1        1.620  -3.899   2.632  0.00  0.00    +0.220 A 
ATOM      2  C   LIG    1        1.101  -4.805   1.716  0.00  0.00    -0.080 A 
ATOM      3  C   LIG    1        1.250  -6.161   1.929  0.00  0.00    -0.040 A 
ATOM      4  C   LIG    1        1.915  -6.618   3.052  0.00  0.00    -0.060 A 
ATOM      5  C   LIG    1        2.432  -5.718   3.966  0.00  0.00    -0.040 A 
ATOM      6  C   LIG    1        3.156  -6.220   5.189  0.00  0.00    +0.090 C 
ATOM      7  C   LIG    1        0.687  -7.145   0.935  0.00  0.00    +0.080 C 
ATOM      8  C   LIG    1        2.291  -4.360   3.757  0.00  0.00    -0.080 A 
ENDROOT
BRANCH   1   9
ATOM      9  N   LIG    1        1.471  -2.526   2.420  0.00  0.00    -0.750 N 
ATOM     10  H   LIG    1        1.837  -1.894   3.058  0.00  0.00    +0.400 HD
BRANCH   9  11
ATOM     11  C   LIG    1        0.763  -2.041   1.233  0.00  0.00    +0.240 C 
BRANCH  11  12
ATOM     12  C   LIG    1        0.742  -0.511   1.242  0.00  0.00    +0.010 C 
BRANCH  12  14
ATOM     13  C   LIG    1       -0.019   1.526   0.010  0.00  0.00    +0.010 C 
ATOM     14  C   LIG    1        0.002  -0.004   0.002  0.00  0.00    +0.000 C 
ENDBRANCH  12  14
ENDBRANCH  11  12
ENDBRANCH   9  11
ENDBRANCH   1   9
TORSDOF 4
ENDMDL
MODEL      877
REMARK  Name = ZINC000019964669
REMARK                            x       y       z     vdW  Elec       q    Type
REMARK                         _______ _______ _______ _____ _____    ______ ____
ROOT
ATOM      1  C   LIG    1        1.569  -3.870  -2.700  0.00  0.00    +0.220 A 
ATOM      2  C   LIG    1        1.058  -4.786  -1.790  0.00  0.00    -0.080 A 
ATOM      3  C   LIG    1        1.201  -6.140  -2.021  0.00  0.00    -0.040 A 
ATOM      4  C   LIG    1        1.853  -6.584  -3.156  0.00  0.00    -0.060 A 
ATOM      5  C   LIG    1        2.364  -5.675  -4.064  0.00  0.00    +0.050 A 
ATOM      6  C   LIG    1        0.646  -7.135  -1.034  0.00  0.00    +0.080 C 
ATOM      7  C   LIG    1        2.219  -4.320  -3.843  0.00  0.00    -0.170 A 
ATOM      8  C   LIG    1        2.776  -3.329  -4.833  0.00  0.00    +0.090 C 
ENDROOT
BRANCH   1   9
ATOM      9  N   LIG    1        1.425  -2.500  -2.470  0.00  0.00    -0.750 N 
ATOM     10  H   LIG    1        1.779  -1.861  -3.109  0.00  0.00    +0.400 HD
BRANCH   9  11
ATOM     11  C   LIG    1        0.739  -2.027  -1.265  0.00  0.00    +0.240 C 
BRANCH  11  12
ATOM     12  C   LIG    1        0.718  -0.497  -1.257  0.00  0.00    +0.010 C 
BRANCH  12  14
ATOM     13  C   LIG    1       -0.019   1.526   0.010  0.00  0.00    +0.010 C 
ATOM     14  C   LIG    1        0.002  -0.004   0.002  0.00  0.00    +0.000 C 
ENDBRANCH  12  14
ENDBRANCH  11  12
ENDBRANCH   9  11
ENDBRANCH   1   9
TORSDOF 4
ENDMDL
MODEL      878
REMARK  Name = ZINC000001732341
REMARK                            x       y       z     vdW  Elec       q    Type
REMARK                         _______ _______ _______ _____ _____    ______ ____
ROOT
ATOM      1  C   LIG    1       -2.913  -3.908   0.009  0.00  0.00    +0.140 A 
ATOM      2  C   LIG    1       -1.802  -4.739  -0.001  0.00  0.00    -0.060 A 
ATOM      3  C   LIG    1       -1.967  -6.110  -0.006  0.00  0.00    +0.070 A 
ATOM      4  C   LIG    1       -3.238  -6.655  -0.003  0.00  0.00    -0.070 A 
ATOM      5  C   LIG    1       -4.348  -5.829   0.006  0.00  0.00    +0.070 A 
ATOM      6 CL   LIG    1       -3.442  -8.380  -0.011  0.00  0.00    -0.070 Cl
ATOM      7  C   LIG    1       -4.187  -4.456   0.018  0.00  0.00    +0.000 A 
ENDROOT
BRANCH   1   8
ATOM      8  O   LIG    1       -2.753  -2.558   0.015  0.00  0.00    -0.310 OA
BRANCH   8   9
ATOM      9  C   LIG    1       -1.413  -2.063   0.004  0.00  0.00    +0.180 C 
BRANCH   9  10
ATOM     10  C   LIG    1       -1.433  -0.534   0.013  0.00  0.00    +0.040 C 
BRANCH  10  12
ATOM     11  C   LIG    1       -0.019   1.526   0.010  0.00  0.00    +0.030 C 
ATOM     12  C   LIG    1        0.002  -0.004   0.002  0.00  0.00    +0.020 C 
ENDBRANCH  10  12
ENDBRANCH   9  10
ENDBRANCH   8   9
ENDBRANCH   1   8
TORSDOF 4
ENDMDL
MODEL      879
REMARK  Name = ZINC000001234101
REMARK                            x       y       z     vdW  Elec       q    Type
REMARK                         _______ _______ _______ _____ _____    ______ ____
ROOT
ATOM      1  C   LIG    1        0.021  -0.025   2.504  0.00  0.00    +0.010 C 
ATOM      2  C   LIG    1        0.030  -0.732   3.646  0.00  0.00    +0.040 C 
ENDROOT
BRANCH   1   9
ATOM      3  C   LIG    1       -0.018   1.503   0.010  0.00  0.00    +0.110 C 
ATOM      4  C   LIG    1        0.002  -0.004   0.002  0.00  0.00    -0.130 A 
ATOM      5  C   LIG    1        0.006  -0.697  -1.189  0.00  0.00    +0.260 A 
ATOM      6  N   LIG    1        0.023  -2.017  -1.206  0.00  0.00    -0.480 NA
ATOM      7  C   LIG    1        0.038  -2.732  -0.097  0.00  0.00    +0.260 A 
ATOM      8  C   LIG    1        0.036  -2.122   1.139  0.00  0.00    -0.030 A 
ATOM      9  C   LIG    1        0.023  -0.722   1.206  0.00  0.00    -0.010 A 
ENDBRANCH   1   9
BRANCH   2  10
ATOM     10  C   LIG    1        0.027  -0.035   4.944  0.00  0.00    -0.060 A 
ATOM     11  C   LIG    1        0.009   1.361   4.991  0.00  0.00    +0.010 A 
ATOM     12  C   LIG    1        0.006   2.007   6.210  0.00  0.00    +0.010 A 
ATOM     13  C   LIG    1        0.022   1.275   7.384  0.00  0.00    +0.010 A 
ATOM     14  C   LIG    1        0.040  -0.108   7.346  0.00  0.00    +0.010 A 
ATOM     15  C   LIG    1        0.037  -0.767   6.134  0.00  0.00    +0.030 A 
ENDBRANCH   2  10
TORSDOF 2
ENDMDL
MODEL      880
REMARK  Name = ZINC000001733404
REMARK                            x       y       z     vdW  Elec       q    Type
REMARK                         _______ _______ _______ _____ _____    ______ ____
ROOT
ATOM      1  C   LIG    1       -2.892  -4.439   0.006  0.00  0.00    -0.090 A 
ATOM      2  C   LIG    1       -1.611  -4.979  -0.004  0.00  0.00    -0.010 A 
ATOM      3  C   LIG    1       -1.441  -6.349  -0.013  0.00  0.00    +0.030 A 
ATOM      4  C   LIG    1       -2.543  -7.184  -0.012  0.00  0.00    -0.090 A 
ATOM      5  C   LIG    1       -3.819  -6.651  -0.003  0.00  0.00    +0.030 A 
ATOM      6  C   LIG    1       -2.353  -8.679  -0.022  0.00  0.00    +0.090 C 
ATOM      7  C   LIG    1       -3.997  -5.282   0.012  0.00  0.00    +0.030 A 
ENDROOT
BRANCH   1   8
ATOM      8  S   LIG    1       -3.114  -2.691   0.017  0.00  0.00    -0.120 S 
BRANCH   8   9
ATOM      9  C   LIG    1       -1.413  -2.063   0.004  0.00  0.00    +0.070 C 
BRANCH   9  10
ATOM     10  C   LIG    1       -1.433  -0.534   0.013  0.00  0.00    +0.030 C 
BRANCH  10  12
ATOM     11  C   LIG    1       -0.019   1.526   0.010  0.00  0.00    +0.030 C 
ATOM     12  C   LIG    1        0.002  -0.004   0.002  0.00  0.00    +0.000 C 
ENDBRANCH  10  12
ENDBRANCH   9  10
ENDBRANCH   8   9
ENDBRANCH   1   8
TORSDOF 4
ENDMDL
MODEL      881
REMARK  Name = ZINC000001655699
REMARK                            x       y       z     vdW  Elec       q    Type
REMARK                         _______ _______ _______ _____ _____    ______ ____
ROOT
ATOM      1  C   LIG    1        1.419  -2.645  -2.714  0.00  0.00    -0.020 C 
ENDROOT
BRANCH   1   2
ATOM      2  C   LIG    1        2.847  -2.200  -2.392  0.00  0.00    +0.000 C 
ATOM      3  C   LIG    1        3.794  -2.694  -3.488  0.00  0.00    +0.000 C 
ENDBRANCH   1   2
BRANCH   1   4
ATOM      4  C   LIG    1        0.452  -2.027  -1.702  0.00  0.00    +0.000 C 
BRANCH   4   5
ATOM      5  C   LIG    1        0.448  -0.506  -1.865  0.00  0.00    +0.000 C 
BRANCH   5   7
ATOM      6  C   LIG    1       -0.523   1.634  -1.016  0.00  0.00    +0.000 C 
ATOM      7  C   LIG    1       -0.519   0.113  -0.853  0.00  0.00    -0.010 C 
ENDBRANCH   5   7
ENDBRANCH   4   5
ENDBRANCH   1   4
BRANCH   1   8
ATOM      8  C   LIG    1        1.331  -4.171  -2.637  0.00  0.00    +0.020 C 
BRANCH   8   9
ATOM      9  C   LIG    1       -0.062  -4.624  -3.078  0.00  0.00    -0.010 C 
BRANCH   9  10
ATOM     10  C   LIG    1       -0.111  -6.153  -3.122  0.00  0.00    +0.200 C 
BRANCH  10  11
ATOM     11  C   LIG    1       -1.462  -6.604  -3.682  0.00  0.00    -0.030 C 
ATOM     12  C   LIG    1       -1.464  -8.126  -3.843  0.00  0.00    +0.010 C 
ENDBRANCH  10  11
BRANCH  10  13
ATOM     13  O   LIG    1        0.055  -6.673  -1.802  0.00  0.00    -0.560 OA
ATOM     14  H   LIG    1       -0.624  -6.384  -1.177  0.00  0.00    +0.370 HD
ENDBRANCH  10  13
ENDBRANCH   9  10
ENDBRANCH   8   9
ENDBRANCH   1   8
TORSDOF 9
ENDMDL
MODEL      882
REMARK  Name = ZINC000001655697
REMARK                            x       y       z     vdW  Elec       q    Type
REMARK                         _______ _______ _______ _____ _____    ______ ____
ROOT
ATOM      1  C   LIG    1        1.418  -2.455  -2.595  0.00  0.00    -0.020 C 
ENDROOT
BRANCH   1   2
ATOM      2  C   LIG    1        2.894  -2.164  -2.315  0.00  0.00    +0.000 C 
ATOM      3  C   LIG    1        3.741  -2.645  -3.495  0.00  0.00    +0.000 C 
ENDBRANCH   1   2
BRANCH   1   4
ATOM      4  C   LIG    1        0.558  -1.834  -1.493  0.00  0.00    +0.000 C 
BRANCH   4   5
ATOM      5  C   LIG    1        0.687  -0.310  -1.542  0.00  0.00    +0.000 C 
BRANCH   5   7
ATOM      6  C   LIG    1       -0.043   1.835  -0.489  0.00  0.00    +0.000 C 
ATOM      7  C   LIG    1       -0.173   0.311  -0.440  0.00  0.00    -0.010 C 
ENDBRANCH   5   7
ENDBRANCH   4   5
ENDBRANCH   1   4
BRANCH   1   8
ATOM      8  C   LIG    1        1.193  -3.968  -2.627  0.00  0.00    +0.020 C 
BRANCH   8   9
ATOM      9  C   LIG    1       -0.252  -4.260  -3.038  0.00  0.00    -0.020 C 
BRANCH   9  10
ATOM     10  C   LIG    1       -0.463  -5.773  -3.120  0.00  0.00    +0.200 C 
BRANCH  10  11
ATOM     11  C   LIG    1       -1.936  -6.068  -3.408  0.00  0.00    -0.030 C 
ATOM     12  C   LIG    1       -2.172  -7.579  -3.367  0.00  0.00    +0.010 C 
ENDBRANCH  10  11
BRANCH  10  13
ATOM     13  O   LIG    1        0.344  -6.310  -4.169  0.00  0.00    -0.560 OA
ATOM     14  H   LIG    1        0.146  -5.946  -5.043  0.00  0.00    +0.370 HD
ENDBRANCH  10  13
ENDBRANCH   9  10
ENDBRANCH   8   9
ENDBRANCH   1   8
TORSDOF 9
ENDMDL
MODEL      883
REMARK  Name = ZINC000000162004
REMARK                            x       y       z     vdW  Elec       q    Type
REMARK                         _______ _______ _______ _____ _____    ______ ____
ROOT
ATOM      1  C   LIG    1       -0.018   1.503   0.010  0.00  0.00    +0.120 C 
ATOM      2  C   LIG    1        0.002  -0.004   0.002  0.00  0.00    -0.090 A 
ATOM      3  C   LIG    1        0.007  -0.707  -1.113  0.00  0.00    -0.020 A 
ATOM      4  S   LIG    1        0.032  -2.429  -0.783  0.00  0.00    +0.100 S 
ATOM      5  C   LIG    1        0.036  -2.165   0.956  0.00  0.00    -0.140 A 
ATOM      6  C   LIG    1        0.053  -3.080   2.013  0.00  0.00    +0.070 A 
ATOM      7  C   LIG    1        0.052  -2.637   3.314  0.00  0.00    +0.040 A 
ATOM      8  C   LIG    1        0.035  -1.276   3.589  0.00  0.00    -0.030 A 
ATOM      9  C   LIG    1        0.019  -0.361   2.567  0.00  0.00    +0.070 A 
ATOM     10 CL   LIG    1        0.034  -0.729   5.237  0.00  0.00    -0.060 Cl
ATOM     11  C   LIG    1        0.024  -0.793   1.223  0.00  0.00    -0.060 A 
ENDROOT
TORSDOF 0
ENDMDL
MODEL      884
REMARK  Name = ZINC000000125554
REMARK                            x       y       z     vdW  Elec       q    Type
REMARK                         _______ _______ _______ _____ _____    ______ ____
ROOT
ATOM      1  C   LIG    1       -0.018   1.503   0.010  0.00  0.00    +0.110 C 
ATOM      2  C   LIG    1        0.002  -0.004   0.002  0.00  0.00    -0.060 A 
ATOM      3  C   LIG    1        0.007  -0.706  -1.110  0.00  0.00    -0.050 A 
ATOM      4  S   LIG    1        0.032  -2.424  -0.769  0.00  0.00    +0.160 S 
ATOM      5  C   LIG    1        0.036  -2.141   0.976  0.00  0.00    -0.260 A 
ATOM      6  S   LIG    1        0.056  -3.052   2.490  0.00  0.00    +0.160 S 
ATOM      7  C   LIG    1        0.041  -1.583   3.446  0.00  0.00    -0.050 A 
ATOM      8  C   LIG    1        0.028  -0.518   2.674  0.00  0.00    -0.060 A 
ATOM      9  C   LIG    1        0.016   0.884   3.226  0.00  0.00    +0.110 C 
ATOM     10  C   LIG    1        0.025  -0.800   1.234  0.00  0.00    -0.090 A 
ENDROOT
TORSDOF 0
ENDMDL
MODEL      885
REMARK  Name = ZINC000000129358
REMARK                            x       y       z     vdW  Elec       q    Type
REMARK                         _______ _______ _______ _____ _____    ______ ____
ROOT
ATOM      1  C   LIG    1       -0.018   1.503   0.010  0.00  0.00    +0.140 C 
ATOM      2  C   LIG    1        0.002  -0.004   0.002  0.00  0.00    -0.150 A 
ATOM      3  C   LIG    1       -1.077  -0.762   0.003  0.00  0.00    +0.020 A 
ATOM      4  C   LIG    1       -0.820  -2.193  -0.006  0.00  0.00    -0.060 A 
ATOM      5  C   LIG    1       -1.737  -3.266  -0.009  0.00  0.00    +0.070 A 
ATOM      6  C   LIG    1       -1.287  -4.562  -0.019  0.00  0.00    -0.030 A 
ATOM      7  C   LIG    1        0.076  -4.833  -0.027  0.00  0.00    +0.040 A 
ATOM      8  C   LIG    1        0.986  -3.803  -0.025  0.00  0.00    +0.070 A 
ATOM      9 CL   LIG    1       -2.427  -5.871  -0.022  0.00  0.00    -0.060 Cl
ATOM     10  C   LIG    1        0.549  -2.475  -0.015  0.00  0.00    -0.140 A 
ATOM     11  S   LIG    1        1.463  -0.972  -0.018  0.00  0.00    +0.100 S 
ENDROOT
TORSDOF 0
ENDMDL
MODEL      886
REMARK  Name = ZINC000000134498
REMARK                            x       y       z     vdW  Elec       q    Type
REMARK                         _______ _______ _______ _____ _____    ______ ____
ROOT
ATOM      1  C   LIG    1       -0.018   1.503   0.010  0.00  0.00    +0.180 C 
ATOM      2  C   LIG    1        0.002  -0.004   0.002  0.00  0.00    +0.070 A 
ATOM      3  N   LIG    1       -1.045  -0.742   0.003  0.00  0.00    -0.470 NA
ATOM      4  C   LIG    1       -0.879  -2.067  -0.005  0.00  0.00    +0.100 A 
ATOM      5  C   LIG    1        0.466  -2.429  -0.013  0.00  0.00    -0.190 A 
ATOM      6  C   LIG    1        0.847  -3.780  -0.022  0.00  0.00    +0.060 A 
ATOM      7  C   LIG    1       -0.065  -4.779  -0.024  0.00  0.00    +0.050 A 
ATOM      8  C   LIG    1       -1.444  -4.492  -0.016  0.00  0.00    -0.040 A 
ATOM      9  C   LIG    1       -2.400  -5.521  -0.017  0.00  0.00    +0.030 A 
ATOM     10  C   LIG    1       -3.726  -5.208  -0.009  0.00  0.00    +0.020 A 
ATOM     11  C   LIG    1       -4.150  -3.883   0.000  0.00  0.00    +0.020 A 
ATOM     12  C   LIG    1       -3.247  -2.860   0.002  0.00  0.00    +0.040 A 
ATOM     13  C   LIG    1       -1.879  -3.148  -0.006  0.00  0.00    -0.010 A 
ATOM     14  S   LIG    1        1.423  -0.949  -0.017  0.00  0.00    +0.130 S 
ENDROOT
TORSDOF 0
ENDMDL
MODEL      887
REMARK  Name = ZINC000000153625
REMARK                            x       y       z     vdW  Elec       q    Type
REMARK                         _______ _______ _______ _____ _____    ______ ____
ROOT
ATOM      1  C   LIG    1       -0.018   1.503   0.010  0.00  0.00    +0.100 C 
ATOM      2  C   LIG    1        0.002  -0.004   0.002  0.00  0.00    -0.070 A 
ATOM      3  C   LIG    1        0.006  -0.687  -1.200  0.00  0.00    +0.040 A 
ATOM      4  C   LIG    1        0.025  -2.068  -1.212  0.00  0.00    +0.050 A 
ATOM      5  C   LIG    1        0.041  -2.771  -0.013  0.00  0.00    -0.120 A 
ATOM      6  C   LIG    1        0.037  -2.081   1.193  0.00  0.00    +0.010 A 
ATOM      7  C   LIG    1        0.023  -0.700   1.197  0.00  0.00    +0.030 A 
ENDROOT
BRANCH   5   8
ATOM      8  S   LIG    1        0.066  -4.533  -0.023  0.00  0.00    -0.020 S 
BRANCH   8   9
ATOM      9  C   LIG    1        0.080  -4.950   1.742  0.00  0.00    +0.450 C 
ATOM     10  F   LIG    1        1.217  -4.400   2.343  0.00  0.00    -0.160 F 
ATOM     11  F   LIG    1        0.100  -6.341   1.892  0.00  0.00    -0.140 F 
ATOM     12  F   LIG    1       -1.067  -4.432   2.353  0.00  0.00    -0.160 F 
ENDBRANCH   8   9
ENDBRANCH   5   8
TORSDOF 2
ENDMDL
MODEL      888
REMARK  Name = ZINC000001597489
REMARK                            x       y       z     vdW  Elec       q    Type
REMARK                         _______ _______ _______ _____ _____    ______ ____
ROOT
ATOM      1  C   LIG    1       -2.848  -2.593   0.015  0.00  0.00    +0.250 C 
ENDROOT
BRANCH   1   2
ATOM      2  C   LIG    1       -2.831  -4.094  -0.117  0.00  0.00    -0.110 A 
ATOM      3  C   LIG    1       -2.885  -4.888   1.013  0.00  0.00    +0.030 A 
ATOM      4  C   LIG    1       -2.869  -6.265   0.892  0.00  0.00    +0.020 A 
ATOM      5  C   LIG    1       -2.798  -6.849  -0.359  0.00  0.00    +0.020 A 
ATOM      6  C   LIG    1       -2.743  -6.056  -1.490  0.00  0.00    +0.030 A 
ATOM      7  C   LIG    1       -2.766  -4.678  -1.370  0.00  0.00    -0.030 A 
ATOM      8 CL   LIG    1       -2.697  -3.681  -2.789  0.00  0.00    -0.060 Cl
ENDBRANCH   1   2
BRANCH   1   9
ATOM      9  O   LIG    1       -3.480  -2.230   1.244  0.00  0.00    -0.550 OA
ATOM     10  H   LIG    1       -3.041  -2.581   2.031  0.00  0.00    +0.370 HD
ENDBRANCH   1   9
BRANCH   1  11
ATOM     11  C   LIG    1       -1.413  -2.063   0.004  0.00  0.00    +0.000 C 
BRANCH  11  12
ATOM     12  C   LIG    1       -1.433  -0.534   0.013  0.00  0.00    +0.010 C 
BRANCH  12  14
ATOM     13  C   LIG    1       -0.019   1.526   0.010  0.00  0.00    +0.000 C 
ATOM     14  C   LIG    1        0.002  -0.004   0.002  0.00  0.00    -0.010 C 
ENDBRANCH  12  14
ENDBRANCH  11  12
ENDBRANCH   1  11
TORSDOF 5
ENDMDL
MODEL      889
REMARK  Name = ZINC000000155600
REMARK                            x       y       z     vdW  Elec       q    Type
REMARK                         _______ _______ _______ _____ _____    ______ ____
ROOT
ATOM      1  C   LIG    1       -0.018   1.503   0.010  0.00  0.00    +0.190 C 
ATOM      2  C   LIG    1        0.002  -0.004   0.002  0.00  0.00    +0.080 A 
ATOM      3  N   LIG    1        0.007  -0.720  -1.059  0.00  0.00    -0.470 NA
ATOM      4  C   LIG    1        0.027  -2.059  -0.915  0.00  0.00    +0.090 A 
ATOM      5  C   LIG    1        0.038  -2.436   0.423  0.00  0.00    -0.180 A 
ATOM      6  C   LIG    1        0.059  -3.807   0.774  0.00  0.00    +0.000 A 
ATOM      7  C   LIG    1        0.071  -4.211   2.116  0.00  0.00    +0.020 A 
ATOM      8  C   LIG    1        0.090  -5.540   2.420  0.00  0.00    +0.020 A 
ATOM      9  C   LIG    1        0.100  -6.503   1.416  0.00  0.00    +0.020 A 
ATOM     10  C   LIG    1        0.089  -6.144   0.101  0.00  0.00    +0.030 A 
ATOM     11  C   LIG    1        0.068  -4.785  -0.247  0.00  0.00    -0.040 A 
ATOM     12  C   LIG    1        0.057  -4.378  -1.597  0.00  0.00    +0.050 A 
ATOM     13  C   LIG    1        0.036  -3.067  -1.917  0.00  0.00    +0.070 A 
ATOM     14  S   LIG    1        0.029  -0.975   1.406  0.00  0.00    +0.130 S 
ENDROOT
TORSDOF 0
ENDMDL
MODEL      890
REMARK  Name = ZINC000000274923
REMARK                            x       y       z     vdW  Elec       q    Type
REMARK                         _______ _______ _______ _____ _____    ______ ____
ROOT
ATOM      1  C   LIG    1       -0.018   1.503   0.010  0.00  0.00    +0.180 C 
ATOM      2  C   LIG    1        0.002  -0.004   0.002  0.00  0.00    +0.020 A 
ATOM      3  C   LIG    1       -1.086  -0.789   0.003  0.00  0.00    -0.010 A 
ATOM      4  C   LIG    1       -0.593  -2.169  -0.007  0.00  0.00    -0.190 A 
ATOM      5  C   LIG    1        0.804  -2.066  -0.013  0.00  0.00    +0.090 A 
ATOM      6  C   LIG    1        1.552  -3.264  -0.022  0.00  0.00    -0.080 A 
ATOM      7  C   LIG    1        2.953  -3.251  -0.029  0.00  0.00    +0.040 A 
ATOM      8  C   LIG    1        3.639  -4.429  -0.037  0.00  0.00    +0.010 A 
ATOM      9  C   LIG    1        2.963  -5.646  -0.040  0.00  0.00    +0.040 A 
ATOM     10  C   LIG    1        1.602  -5.693  -0.035  0.00  0.00    +0.050 A 
ATOM     11  C   LIG    1        0.861  -4.500  -0.026  0.00  0.00    +0.140 A 
ATOM     12  N   LIG    1       -0.480  -4.529  -0.020  0.00  0.00    -0.490 NA
ATOM     13  C   LIG    1       -1.198  -3.434  -0.011  0.00  0.00    +0.220 A 
ATOM     14  C   LIG    1       -2.701  -3.535  -0.005  0.00  0.00    +0.140 C 
ATOM     15  O   LIG    1        1.113  -0.761  -0.013  0.00  0.00    -0.170 OA
ENDROOT
TORSDOF 0
ENDMDL
MODEL      891
REMARK  Name = ZINC000000320761
REMARK                            x       y       z     vdW  Elec       q    Type
REMARK                         _______ _______ _______ _____ _____    ______ ____
ROOT
ATOM      1  C   LIG    1       -0.018   1.503   0.010  0.00  0.00    +0.130 C 
ATOM      2  C   LIG    1        0.002  -0.004   0.002  0.00  0.00    +0.170 A 
ATOM      3  C   LIG    1        0.005  -0.675  -1.218  0.00  0.00    -0.010 A 
ATOM      4  C   LIG    1        0.024  -2.042  -1.244  0.00  0.00    +0.020 A 
ATOM      5  C   LIG    1        0.040  -2.730  -0.015  0.00  0.00    -0.100 A 
ATOM      6  C   LIG    1        0.060  -4.133   0.037  0.00  0.00    +0.030 A 
ATOM      7  C   LIG    1        0.075  -4.761   1.245  0.00  0.00    +0.020 A 
ATOM      8  C   LIG    1        0.071  -4.030   2.431  0.00  0.00    +0.030 A 
ATOM      9  C   LIG    1        0.051  -2.669   2.417  0.00  0.00    -0.060 A 
ATOM     10  C   LIG    1        0.046  -1.899   3.712  0.00  0.00    +0.110 C 
ATOM     11  C   LIG    1        0.035  -1.984   1.189  0.00  0.00    +0.140 A 
ATOM     12 CL   LIG    1        0.029  -2.905  -2.751  0.00  0.00    -0.040 Cl
ATOM     13  N   LIG    1        0.022  -0.648   1.144  0.00  0.00    -0.470 NA
ENDROOT
TORSDOF 0
ENDMDL
MODEL      892
REMARK  Name = ZINC000253591159
REMARK                            x       y       z     vdW  Elec       q    Type
REMARK                         _______ _______ _______ _____ _____    ______ ____
ROOT
ATOM      1  C   LIG    1       -0.019   1.526   0.010  0.00  0.00    +0.080 C 
ATOM      2  C   LIG    1        0.002  -0.004   0.002  0.00  0.00    +0.010 C 
ATOM      3  C   LIG    1       -0.833  -0.726   1.061  0.00  0.00    +0.010 C 
ATOM      4  C   LIG    1       -1.220  -2.166   0.826  0.00  0.00    -0.050 A 
ATOM      5  C   LIG    1       -2.400  -2.825   0.660  0.00  0.00    +0.030 A 
ATOM      6  C   LIG    1       -2.414  -4.207   0.456  0.00  0.00    +0.020 A 
ATOM      7  C   LIG    1       -1.270  -4.950   0.414  0.00  0.00    +0.020 A 
ATOM      8  C   LIG    1       -0.035  -4.302   0.582  0.00  0.00    -0.050 A 
ATOM      9  C   LIG    1        1.210  -4.952   0.558  0.00  0.00    +0.020 A 
ATOM     10  C   LIG    1        2.342  -4.211   0.732  0.00  0.00    +0.020 A 
ATOM     11  C   LIG    1        2.307  -2.829   0.932  0.00  0.00    +0.030 A 
ATOM     12  C   LIG    1        1.117  -2.168   0.961  0.00  0.00    -0.060 A 
ATOM     13  C   LIG    1       -0.046  -2.911   0.785  0.00  0.00    -0.080 A 
ATOM     14  C   LIG    1        0.706  -0.706   1.165  0.00  0.00    +0.020 C 
ENDROOT
TORSDOF 0
ENDMDL
MODEL      893
REMARK  Name = ZINC000002539043
REMARK                            x       y       z     vdW  Elec       q    Type
REMARK                         _______ _______ _______ _____ _____    ______ ____
ROOT
ATOM      1  N   LIG    1        1.471  -2.526   2.420  0.00  0.00    -0.480 N 
ATOM      2  C   LIG    1        2.817  -2.765   2.489  0.00  0.00    +0.080 A 
ATOM      3  C   LIG    1        3.142  -3.201   3.717  0.00  0.00    -0.060 A 
ATOM      4  C   LIG    1        1.903  -3.245   4.497  0.00  0.00    -0.110 A 
ATOM      5  C   LIG    1        1.596  -3.606   5.810  0.00  0.00    +0.050 A 
ATOM      6  C   LIG    1        0.303  -3.535   6.249  0.00  0.00    -0.030 A 
ATOM      7  C   LIG    1       -0.707  -3.107   5.399  0.00  0.00    +0.020 A 
ATOM      8  C   LIG    1       -0.426  -2.745   4.099  0.00  0.00    -0.010 A 
ATOM      9  C   LIG    1        3.790  -2.567   1.356  0.00  0.00    +0.140 C 
ATOM     10  C   LIG    1        0.883  -2.804   3.634  0.00  0.00    +0.100 A 
ENDROOT
BRANCH   1  11
ATOM     11  C   LIG    1        0.763  -2.041   1.233  0.00  0.00    +0.290 C 
BRANCH  11  12
ATOM     12  C   LIG    1        0.742  -0.511   1.242  0.00  0.00    +0.000 C 
BRANCH  12  14
ATOM     13  C   LIG    1       -0.019   1.526   0.010  0.00  0.00    +0.010 C 
ATOM     14  C   LIG    1        0.002  -0.004   0.002  0.00  0.00    +0.000 C 
ENDBRANCH  12  14
ENDBRANCH  11  12
ENDBRANCH   1  11
TORSDOF 3
ENDMDL
MODEL      894
REMARK  Name = ZINC000000393289
REMARK                            x       y       z     vdW  Elec       q    Type
REMARK                         _______ _______ _______ _____ _____    ______ ____
ROOT
ATOM      1  C   LIG    1       -0.018   1.503   0.010  0.00  0.00    +0.110 C 
ATOM      2  C   LIG    1        0.002  -0.004   0.002  0.00  0.00    -0.060 A 
ATOM      3  C   LIG    1        0.006  -0.688  -1.199  0.00  0.00    +0.040 A 
ATOM      4  C   LIG    1        0.025  -2.071  -1.207  0.00  0.00    -0.060 A 
ATOM      5  C   LIG    1        0.041  -2.770  -0.013  0.00  0.00    -0.040 A 
ATOM      6  C   LIG    1        0.037  -2.085   1.189  0.00  0.00    +0.050 A 
ATOM      7 CL   LIG    1        0.065  -4.505  -0.024  0.00  0.00    -0.050 Cl
ATOM      8  C   LIG    1        0.029  -2.816  -2.517  0.00  0.00    +0.110 C 
ATOM      9  C   LIG    1        0.023  -0.702   1.196  0.00  0.00    -0.040 A 
ATOM     10 CL   LIG    1        0.019   0.158   2.705  0.00  0.00    -0.050 Cl
ENDROOT
TORSDOF 0
ENDMDL
MODEL      895
REMARK  Name = ZINC000000393243
REMARK                            x       y       z     vdW  Elec       q    Type
REMARK                         _______ _______ _______ _____ _____    ______ ____
ROOT
ATOM      1  C   LIG    1       -0.017   1.378   0.010  0.00  0.00    +0.020 A 
ATOM      2  C   LIG    1        1.171   2.086   0.002  0.00  0.00    +0.010 A 
ATOM      3  C   LIG    1        2.377   1.411  -0.013  0.00  0.00    +0.030 A 
ATOM      4  C   LIG    1        2.396   0.029  -0.020  0.00  0.00    -0.070 A 
ATOM      5  C   LIG    1        1.208  -0.679  -0.011  0.00  0.00    +0.050 A 
ATOM      6  C   LIG    1        0.002  -0.004   0.002  0.00  0.00    +0.010 A 
ENDROOT
BRANCH   4   7
ATOM      7  C   LIG    1        3.711  -0.707  -0.037  0.00  0.00    +0.130 C 
ATOM      8  S   LIG    1        3.833  -1.767   1.432  0.00  0.00    -0.210 S 
ATOM      9  C   LIG    1        5.417  -2.615   1.188  0.00  0.00    +0.100 C 
ATOM     10  C   LIG    1        5.364  -3.469  -0.073  0.00  0.00    +0.060 C 
ATOM     11  C   LIG    1        5.396  -2.594  -1.321  0.00  0.00    +0.100 C 
ATOM     12  S   LIG    1        3.808  -1.743  -1.525  0.00  0.00    -0.210 S 
ENDBRANCH   4   7
TORSDOF 1
ENDMDL
MODEL      896
REMARK  Name = ZINC000000394194
REMARK                            x       y       z     vdW  Elec       q    Type
REMARK                         _______ _______ _______ _____ _____    ______ ____
ROOT
ATOM      1  C   LIG    1       -0.018   1.503   0.010  0.00  0.00    +0.120 C 
ATOM      2  C   LIG    1        0.002  -0.004   0.002  0.00  0.00    -0.050 A 
ATOM      3  C   LIG    1        0.006  -0.689  -1.200  0.00  0.00    -0.030 A 
ATOM      4  C   LIG    1        0.024  -2.073  -1.207  0.00  0.00    +0.060 A 
ATOM      5  C   LIG    1        0.039  -2.771  -0.015  0.00  0.00    +0.060 A 
ATOM      6  C   LIG    1        0.035  -2.087   1.188  0.00  0.00    -0.020 A 
ATOM      7 CL   LIG    1        0.053  -2.964   2.686  0.00  0.00    -0.040 Cl
ATOM      8 CL   LIG    1       -0.013   0.187  -2.698  0.00  0.00    -0.040 Cl
ATOM      9  C   LIG    1        0.023  -0.702   1.196  0.00  0.00    -0.030 A 
ATOM     10 CL   LIG    1        0.018   0.157   2.704  0.00  0.00    -0.030 Cl
ENDROOT
TORSDOF 0
ENDMDL
MODEL      897
REMARK  Name = ZINC000000394938
REMARK                            x       y       z     vdW  Elec       q    Type
REMARK                         _______ _______ _______ _____ _____    ______ ____
ROOT
ATOM      1  C   LIG    1        0.762  -2.018   1.233  0.00  0.00    -0.070 A 
ATOM      2  C   LIG    1        0.168  -2.710   0.195  0.00  0.00    +0.040 A 
ATOM      3  C   LIG    1        0.186  -4.092   0.184  0.00  0.00    +0.010 A 
ATOM      4  C   LIG    1        0.800  -4.785   1.216  0.00  0.00    +0.110 A 
ATOM      5  C   LIG    1        1.397  -4.087   2.259  0.00  0.00    -0.060 A 
ATOM      6 CL   LIG    1        2.167  -4.950   3.553  0.00  0.00    -0.060 Cl
ATOM      7  C   LIG    1        1.381  -2.705   2.261  0.00  0.00    +0.050 A 
ENDROOT
BRANCH   1   8
ATOM      8  C   LIG    1        0.742  -0.511   1.242  0.00  0.00    -0.020 C 
ATOM      9  C   LIG    1        0.026  -0.018   2.500  0.00  0.00    +0.050 C 
ATOM     10  C   LIG    1        2.178   0.019   1.231  0.00  0.00    +0.050 C 
BRANCH   8  12
ATOM     11  C   LIG    1       -0.019   1.526   0.010  0.00  0.00    +0.010 C 
ATOM     12  C   LIG    1        0.002  -0.004   0.002  0.00  0.00    +0.020 C 
ENDBRANCH   8  12
ENDBRANCH   1   8
BRANCH   4  13
ATOM     13  O   LIG    1        0.819  -6.144   1.208  0.00  0.00    -0.490 OA
ATOM     14  H   LIG    1        1.587  -6.524   0.760  0.00  0.00    +0.390 HD
ENDBRANCH   4  13
TORSDOF 3
ENDMDL
MODEL      898
REMARK  Name = ZINC000000398478
REMARK                            x       y       z     vdW  Elec       q    Type
REMARK                         _______ _______ _______ _____ _____    ______ ____
ROOT
ATOM      1  C   LIG    1       -0.018   1.503   0.010  0.00  0.00    +0.120 C 
ATOM      2  C   LIG    1        0.002  -0.004   0.002  0.00  0.00    -0.060 A 
ATOM      3  C   LIG    1        0.006  -0.688  -1.199  0.00  0.00    +0.060 A 
ATOM      4  C   LIG    1        0.025  -2.071  -1.208  0.00  0.00    +0.060 A 
ATOM      5  C   LIG    1        0.040  -2.770  -0.015  0.00  0.00    -0.030 A 
ATOM      6  C   LIG    1        0.036  -2.086   1.189  0.00  0.00    -0.030 A 
ATOM      7 CL   LIG    1        0.055  -2.963   2.687  0.00  0.00    -0.030 Cl
ATOM      8 CL   LIG    1        0.064  -4.506  -0.027  0.00  0.00    -0.040 Cl
ATOM      9  C   LIG    1        0.023  -0.702   1.196  0.00  0.00    -0.030 A 
ATOM     10 CL   LIG    1        0.019   0.158   2.705  0.00  0.00    -0.030 Cl
ENDROOT
TORSDOF 0
ENDMDL
MODEL      899
REMARK  Name = ZINC000000404353
REMARK                            x       y       z     vdW  Elec       q    Type
REMARK                         _______ _______ _______ _____ _____    ______ ____
ROOT
ATOM      1  C   LIG    1       -1.268  -0.760   0.010  0.00  0.00    -0.040 A 
ATOM      2  C   LIG    1       -2.261  -0.454   0.942  0.00  0.00    -0.020 A 
ATOM      3  C   LIG    1       -3.445  -1.164   0.944  0.00  0.00    +0.040 A 
ATOM      4  C   LIG    1       -3.648  -2.178   0.025  0.00  0.00    +0.040 A 
ATOM      5  C   LIG    1       -2.669  -2.487  -0.902  0.00  0.00    +0.040 A 
ATOM      6 CL   LIG    1       -2.008   0.818   2.097  0.00  0.00    -0.050 Cl
ATOM      7  C   LIG    1       -1.482  -1.781  -0.918  0.00  0.00    -0.020 A 
ATOM      8 CL   LIG    1       -0.254  -2.171  -2.082  0.00  0.00    -0.050 Cl
ENDROOT
BRANCH   1  10
ATOM      9  C   LIG    1       -0.016   1.322   0.009  0.00  0.00    +0.070 C 
ATOM     10  C   LIG    1        0.002  -0.004   0.002  0.00  0.00    -0.010 C 
ENDBRANCH   1  10
TORSDOF 1
ENDMDL
MODEL      900
REMARK  Name = ZINC000000568039
REMARK                            x       y       z     vdW  Elec       q    Type
REMARK                         _______ _______ _______ _____ _____    ______ ____
ROOT
ATOM      1  C   LIG    1       -0.018   1.503   0.010  0.00  0.00    +0.190 C 
ATOM      2  C   LIG    1        0.002  -0.004   0.002  0.00  0.00    -0.010 A 
ATOM      3  C   LIG    1       -1.134  -0.752   0.003  0.00  0.00    -0.020 A 
ATOM      4  C   LIG    1       -1.184  -2.138  -0.004  0.00  0.00    +0.150 A 
ATOM      5  C   LIG    1       -0.098  -3.110  -0.015  0.00  0.00    -0.100 A 
ATOM      6  C   LIG    1       -0.363  -4.487  -0.022  0.00  0.00    +0.120 A 
ATOM      7  C   LIG    1        0.677  -5.385  -0.033  0.00  0.00    +0.010 A 
ATOM      8  C   LIG    1        1.998  -4.959  -0.037  0.00  0.00    +0.080 A 
ATOM      9  C   LIG    1        2.288  -3.607  -0.030  0.00  0.00    +0.050 A 
ATOM     10  C   LIG    1        1.252  -2.699  -0.020  0.00  0.00    -0.070 A 
ATOM     11  S   LIG    1       -2.759  -2.808  -0.000  0.00  0.00    -0.500 S 
ATOM     12  S   LIG    1        1.518  -0.945  -0.018  0.00  0.00    +0.070 S 
ENDROOT
TORSDOF 0
ENDMDL
MODEL      901
REMARK  Name = ZINC000000967463
REMARK                            x       y       z     vdW  Elec       q    Type
REMARK                         _______ _______ _______ _____ _____    ______ ____
ROOT
ATOM      1  C   LIG    1        0.062  -4.255  -0.021  0.00  0.00    -0.130 A 
ATOM      2  C   LIG    1        1.163  -4.936  -0.534  0.00  0.00    +0.060 A 
ATOM      3  C   LIG    1        1.178  -6.317  -0.539  0.00  0.00    -0.060 A 
ATOM      4  C   LIG    1        0.102  -7.028  -0.037  0.00  0.00    +0.050 A 
ATOM      5  C   LIG    1       -0.996  -6.364   0.474  0.00  0.00    -0.080 A 
ATOM      6  C   LIG    1       -1.023  -4.977   0.491  0.00  0.00    +0.230 A 
ENDROOT
BRANCH   1  11
ATOM      7  C   LIG    1       -0.018   1.503   0.010  0.00  0.00    +0.090 C 
ATOM      8  C   LIG    1        0.002  -0.004   0.002  0.00  0.00    -0.080 A 
ATOM      9  C   LIG    1        0.006  -0.686  -1.201  0.00  0.00    -0.010 A 
ATOM     10  C   LIG    1        0.025  -2.066  -1.215  0.00  0.00    +0.020 A 
ATOM     11  C   LIG    1        0.041  -2.772  -0.013  0.00  0.00    -0.050 A 
ATOM     12  C   LIG    1        0.037  -2.079   1.196  0.00  0.00    -0.070 A 
ATOM     13  C   LIG    1        0.054  -2.836   2.500  0.00  0.00    +0.080 C 
ATOM     14  C   LIG    1        0.023  -0.700   1.198  0.00  0.00    +0.000 A 
ENDBRANCH   1  11
BRANCH   6  15
ATOM     15  N   LIG    1       -2.131  -4.304   1.007  0.00  0.00    -0.870 N 
ATOM     16  H   LIG    1       -2.147  -3.335   1.018  0.00  0.00    +0.400 HD
ATOM     17  H   LIG    1       -2.885  -4.806   1.354  0.00  0.00    +0.400 HD
ENDBRANCH   6  15
TORSDOF 2
ENDMDL
MODEL      902
REMARK  Name = ZINC000000938865
REMARK                            x       y       z     vdW  Elec       q    Type
REMARK                         _______ _______ _______ _____ _____    ______ ____
ROOT
ATOM      1  C   LIG    1       -0.018   1.503   0.010  0.00  0.00    +0.110 C 
ATOM      2  C   LIG    1        0.002  -0.004   0.002  0.00  0.00    -0.060 A 
ATOM      3  C   LIG    1        0.006  -0.681  -1.179  0.00  0.00    +0.030 A 
ATOM      4  C   LIG    1        0.025  -2.074  -1.209  0.00  0.00    +0.020 A 
ATOM      5  C   LIG    1        0.040  -2.797  -0.056  0.00  0.00    +0.030 A 
ATOM      6  C   LIG    1        0.037  -2.133   1.181  0.00  0.00    -0.100 A 
ATOM      7  C   LIG    1        0.052  -2.845   2.395  0.00  0.00    -0.010 A 
ATOM      8  C   LIG    1        0.049  -2.132   3.560  0.00  0.00    -0.020 A 
ATOM      9  C   LIG    1        0.030  -0.738   3.523  0.00  0.00    +0.210 A 
ATOM     10  N   LIG    1        0.015  -0.078   2.389  0.00  0.00    -0.470 NA
ATOM     11 CL   LIG    1        0.026   0.147   5.016  0.00  0.00    -0.030 Cl
ATOM     12  C   LIG    1        0.073  -4.351   2.409  0.00  0.00    +0.130 C 
ATOM     13  C   LIG    1        0.023  -0.716   1.214  0.00  0.00    +0.140 A 
ENDROOT
TORSDOF 0
ENDMDL
MODEL      903
REMARK  Name = ZINC000000968711
REMARK                            x       y       z     vdW  Elec       q    Type
REMARK                         _______ _______ _______ _____ _____    ______ ____
ROOT
ATOM      1  C   LIG    1       -0.022   1.750   0.012  0.00  0.00    -0.040 A 
ATOM      2  C   LIG    1        1.212   2.232   0.003  0.00  0.00    +0.020 A 
ATOM      3  C   LIG    1        2.252   1.224  -0.015  0.00  0.00    -0.080 A 
ATOM      4  C   LIG    1        1.761  -0.039  -0.005  0.00  0.00    -0.160 A 
ATOM      5  C   LIG    1        2.602  -1.294   0.005  0.00  0.00    +0.170 C 
ATOM      6  C   LIG    1        3.466  -1.310   1.236  0.00  0.00    -0.070 A 
ATOM      7  C   LIG    1        3.313  -2.343   2.142  0.00  0.00    +0.000 A 
ATOM      8  C   LIG    1        4.088  -2.397   3.285  0.00  0.00    +0.020 A 
ATOM      9  C   LIG    1        5.027  -1.411   3.530  0.00  0.00    +0.000 A 
ATOM     10  C   LIG    1        5.191  -0.377   2.638  0.00  0.00    +0.010 A 
ATOM     11  C   LIG    1        4.408  -0.308   1.473  0.00  0.00    -0.050 A 
ATOM     12  C   LIG    1        4.624   0.820   0.567  0.00  0.00    +0.010 C 
ATOM     13  C   LIG    1        3.701   1.521  -0.056  0.00  0.00    +0.050 C 
ATOM     14  S   LIG    1        0.002  -0.004   0.002  0.00  0.00    +0.100 S 
ENDROOT
TORSDOF 0
ENDMDL
MODEL      904
REMARK  Name = ZINC000257373359
REMARK                            x       y       z     vdW  Elec       q    Type
REMARK                         _______ _______ _______ _____ _____    ______ ____
ROOT
ATOM      1  N   LIG    1        1.037  -1.784   1.764  0.00  0.00    -0.740 N 
ATOM      2  H   LIG    1        0.651  -2.585   1.375  0.00  0.00    +0.400 HD
ENDROOT
BRANCH   1   3
ATOM      3  C   LIG    1        1.953  -1.890   2.813  0.00  0.00    +0.220 A 
ATOM      4  C   LIG    1        2.638  -0.766   3.256  0.00  0.00    -0.080 A 
ATOM      5  C   LIG    1        3.542  -0.874   4.294  0.00  0.00    +0.050 A 
ATOM      6  C   LIG    1        3.767  -2.100   4.892  0.00  0.00    -0.060 A 
ATOM      7  C   LIG    1        3.088  -3.222   4.454  0.00  0.00    -0.040 A 
ATOM      8  C   LIG    1        3.336  -4.556   5.109  0.00  0.00    +0.080 C 
ATOM      9  C   LIG    1        2.178  -3.120   3.420  0.00  0.00    -0.080 A 
ENDBRANCH   1   3
BRANCH   1  10
ATOM     10  C   LIG    1        0.658  -0.465   1.253  0.00  0.00    +0.180 C 
ATOM     11  C   LIG    1        0.189   0.416   2.412  0.00  0.00    +0.030 C 
ATOM     12  C   LIG    1        1.866   0.185   0.575  0.00  0.00    +0.020 C 
BRANCH  10  14
ATOM     13  C   LIG    1       -0.871   0.760  -0.297  0.00  0.00    +0.030 C 
ATOM     14  C   LIG    1       -0.475  -0.618   0.237  0.00  0.00    +0.020 C 
ENDBRANCH  10  14
ENDBRANCH   1  10
TORSDOF 3
ENDMDL
MODEL      905
REMARK  Name = ZINC000000968466
REMARK                            x       y       z     vdW  Elec       q    Type
REMARK                         _______ _______ _______ _____ _____    ______ ____
ROOT
ATOM      1  C   LIG    1        0.707  -0.490  -1.238  0.00  0.00    -0.130 A 
ATOM      2  C   LIG    1        2.052  -0.779  -1.081  0.00  0.00    +0.100 A 
ATOM      3  C   LIG    1        2.986  -1.238  -1.996  0.00  0.00    -0.040 A 
ATOM      4  C   LIG    1        2.821  -1.538  -3.338  0.00  0.00    +0.040 A 
ATOM      5  C   LIG    1        1.650  -1.444  -4.095  0.00  0.00    -0.090 A 
ATOM      6  C   LIG    1        1.532  -1.758  -5.448  0.00  0.00    -0.060 A 
ATOM      7  C   LIG    1        0.222  -1.537  -5.835  0.00  0.00    +0.020 A 
ATOM      8  C   LIG    1       -0.526  -1.084  -4.764  0.00  0.00    -0.170 A 
ATOM      9  C   LIG    1       -1.992  -0.736  -4.796  0.00  0.00    +0.090 C 
ATOM     10  C   LIG    1        0.306  -1.004  -3.647  0.00  0.00    -0.080 A 
ATOM     11  C   LIG    1        4.048  -2.022  -4.068  0.00  0.00    +0.090 C 
ATOM     12  C   LIG    1       -0.084  -0.590  -2.371  0.00  0.00    +0.130 A 
ENDROOT
BRANCH   1  14
ATOM     13  C   LIG    1       -0.019   1.526   0.010  0.00  0.00    +0.030 C 
ATOM     14  C   LIG    1        0.002  -0.004   0.002  0.00  0.00    +0.050 C 
ENDBRANCH   1  14
TORSDOF 1
ENDMDL
MODEL      906
REMARK  Name = ZINC000001076068
REMARK                            x       y       z     vdW  Elec       q    Type
REMARK                         _______ _______ _______ _____ _____    ______ ____
ROOT
ATOM      1  C   LIG    1       -0.018   1.503   0.010  0.00  0.00    +0.070 C 
ATOM      2  C   LIG    1        0.002  -0.004   0.002  0.00  0.00    -0.140 A 
ATOM      3  C   LIG    1        0.006  -0.687  -1.200  0.00  0.00    +0.040 A 
ATOM      4  C   LIG    1        0.023  -2.068  -1.208  0.00  0.00    -0.070 A 
ATOM      5  C   LIG    1        0.036  -2.770  -0.008  0.00  0.00    +0.220 A 
ATOM      6  N   LIG    1        0.045  -4.169  -0.037  0.00  0.00    -0.740 N 
ATOM      7  H   LIG    1       -0.150  -4.646  -0.859  0.00  0.00    +0.400 HD
ATOM      8  C   LIG    1        0.354  -4.903   1.198  0.00  0.00    +0.170 C 
ATOM      9  C   LIG    1       -0.432  -4.249   2.342  0.00  0.00    +0.030 C 
ATOM     10  C   LIG    1        0.055  -2.811   2.516  0.00  0.00    +0.040 C 
ATOM     11  C   LIG    1       -0.860  -2.083   3.503  0.00  0.00    +0.030 C 
ATOM     12  C   LIG    1        1.854  -4.824   1.486  0.00  0.00    +0.020 C 
ATOM     13  C   LIG    1       -0.069  -6.366   1.049  0.00  0.00    +0.040 C 
ATOM     14  C   LIG    1        0.036  -2.084   1.198  0.00  0.00    -0.140 A 
ATOM     15  C   LIG    1        0.023  -0.700   1.196  0.00  0.00    +0.040 A 
ENDROOT
TORSDOF 0
ENDMDL
MODEL      907
REMARK  Name = ZINC000001027361
REMARK                            x       y       z     vdW  Elec       q    Type
REMARK                         _______ _______ _______ _____ _____    ______ ____
ROOT
ATOM      1  C   LIG    1       -0.018   1.503   0.010  0.00  0.00    +0.080 C 
ATOM      2  C   LIG    1        0.002  -0.004   0.002  0.00  0.00    -0.110 A 
ATOM      3  C   LIG    1        0.006  -0.686  -1.207  0.00  0.00    +0.020 A 
ATOM      4  C   LIG    1        0.024  -2.063  -1.237  0.00  0.00    -0.010 A 
ATOM      5  C   LIG    1        0.039  -2.780  -0.045  0.00  0.00    +0.090 A 
ATOM      6  N   LIG    1        0.058  -4.124   0.253  0.00  0.00    -0.590 N 
ATOM      7  H   LIG    1        0.064  -4.840  -0.402  0.00  0.00    +0.410 HD
ATOM      8  C   LIG    1        0.067  -4.300   1.610  0.00  0.00    +0.100 A 
ATOM      9  C   LIG    1        0.055  -3.107   2.226  0.00  0.00    -0.060 A 
ATOM     10  C   LIG    1        0.036  -2.084   1.178  0.00  0.00    -0.100 A 
ATOM     11  C   LIG    1        0.023  -0.688   1.185  0.00  0.00    +0.050 A 
ENDROOT
BRANCH   8  12
ATOM     12  C   LIG    1        0.089  -5.635   2.309  0.00  0.00    -0.010 C 
ATOM     13  C   LIG    1       -1.212  -5.822   3.092  0.00  0.00    +0.040 C 
ATOM     14  C   LIG    1        1.277  -5.686   3.272  0.00  0.00    +0.040 C 
ATOM     15  C   LIG    1        0.225  -6.752   1.272  0.00  0.00    +0.040 C 
ENDBRANCH   8  12
TORSDOF 1
ENDMDL
MODEL      908
REMARK  Name = ZINC000001027281
REMARK                            x       y       z     vdW  Elec       q    Type
REMARK                         _______ _______ _______ _____ _____    ______ ____
ROOT
ATOM      1  C   LIG    1       -0.018   1.503   0.010  0.00  0.00    +0.090 C 
ATOM      2  C   LIG    1        0.002  -0.004   0.002  0.00  0.00    -0.080 A 
ATOM      3  C   LIG    1        0.006  -0.689  -1.199  0.00  0.00    +0.000 A 
ATOM      4  C   LIG    1        0.025  -2.071  -1.206  0.00  0.00    -0.070 A 
ATOM      5  C   LIG    1        0.041  -2.768  -0.013  0.00  0.00    +0.000 A 
ATOM      6  C   LIG    1        0.037  -2.084   1.188  0.00  0.00    -0.080 A 
ATOM      7  C   LIG    1        0.054  -2.844   2.489  0.00  0.00    +0.090 C 
ATOM      8  C   LIG    1        0.023  -0.702   1.195  0.00  0.00    -0.010 A 
ENDROOT
BRANCH   4   9
ATOM      9  C   LIG    1        0.028  -2.817  -2.516  0.00  0.00    +0.070 C 
BRANCH   9  10
ATOM     10  C   LIG    1        1.472  -3.050  -2.966  0.00  0.00    -0.060 C 
ATOM     11  C   LIG    1        2.174  -1.703  -3.145  0.00  0.00    +0.010 C 
ATOM     12  C   LIG    1        1.475  -3.808  -4.295  0.00  0.00    +0.040 C 
ATOM     13  C   LIG    1        2.209  -3.873  -1.908  0.00  0.00    +0.010 C 
ENDBRANCH   9  10
ENDBRANCH   4   9
TORSDOF 2
ENDMDL
MODEL      909
REMARK  Name = ZINC000001241943
REMARK                            x       y       z     vdW  Elec       q    Type
REMARK                         _______ _______ _______ _____ _____    ______ ____
ROOT
ATOM      1  C   LIG    1       -0.018   1.503   0.010  0.00  0.00    +0.090 C 
ATOM      2  C   LIG    1        0.002  -0.004   0.002  0.00  0.00    -0.060 A 
ATOM      3  C   LIG    1        0.006  -0.689  -1.199  0.00  0.00    -0.030 A 
ATOM      4  C   LIG    1        0.028  -2.070  -1.203  0.00  0.00    +0.030 A 
ATOM      5  C   LIG    1        0.045  -2.777  -0.011  0.00  0.00    -0.130 A 
ATOM      6  C   LIG    1        0.036  -2.096   1.194  0.00  0.00    +0.140 A 
ATOM      7  N   LIG    1        0.034  -2.741   2.429  0.00  0.00    -0.630 N 
ATOM      8  H   LIG    1        0.556  -2.215   3.113  0.00  0.00    +0.360 HD
ATOM      9  C   LIG    1        0.510  -4.124   2.357  0.00  0.00    +0.130 C 
ATOM     10  C   LIG    1       -0.299  -4.867   1.286  0.00  0.00    +0.050 C 
ATOM     11  C   LIG    1        0.318  -4.805   3.713  0.00  0.00    +0.050 C 
ATOM     12  C   LIG    1        0.077  -4.283  -0.078  0.00  0.00    +0.030 C 
ATOM     13  C   LIG    1       -0.921  -4.766  -1.132  0.00  0.00    +0.040 C 
ATOM     14  C   LIG    1        0.023  -0.700   1.192  0.00  0.00    -0.130 A 
ATOM     15  C   LIG    1        0.020   0.050   2.498  0.00  0.00    +0.090 C 
ENDROOT
TORSDOF 0
ENDMDL
MODEL      910
REMARK  Name = ZINC000001241945
REMARK                            x       y       z     vdW  Elec       q    Type
REMARK                         _______ _______ _______ _____ _____    ______ ____
ROOT
ATOM      1  C   LIG    1       -0.018   1.503   0.010  0.00  0.00    +0.090 C 
ATOM      2  C   LIG    1        0.002  -0.004   0.002  0.00  0.00    -0.080 A 
ATOM      3  C   LIG    1        0.006  -0.689  -1.199  0.00  0.00    -0.010 A 
ATOM      4  C   LIG    1        0.022  -2.070  -1.203  0.00  0.00    +0.020 A 
ATOM      5  C   LIG    1        0.036  -2.777  -0.011  0.00  0.00    -0.120 A 
ATOM      6  C   LIG    1        0.038  -2.096   1.194  0.00  0.00    +0.120 A 
ATOM      7  N   LIG    1        0.070  -2.741   2.429  0.00  0.00    -0.630 N 
ATOM      8  H   LIG    1        0.984  -2.669   2.851  0.00  0.00    +0.350 HD
ATOM      9  C   LIG    1       -0.368  -4.136   2.361  0.00  0.00    +0.170 C 
ATOM     10  C   LIG    1        0.451  -4.856   1.282  0.00  0.00    +0.000 C 
ATOM     11  C   LIG    1       -0.144  -4.812   3.715  0.00  0.00    +0.050 C 
ATOM     12  C   LIG    1        0.046  -4.283  -0.078  0.00  0.00    +0.030 C 
ATOM     13  C   LIG    1       -1.352  -4.785  -0.446  0.00  0.00    +0.040 C 
ATOM     14  C   LIG    1        0.023  -0.700   1.192  0.00  0.00    -0.090 A 
ATOM     15  C   LIG    1        0.017   0.050   2.498  0.00  0.00    +0.100 C 
ENDROOT
TORSDOF 0
ENDMDL
MODEL      911
REMARK  Name = ZINC000001241946
REMARK                            x       y       z     vdW  Elec       q    Type
REMARK                         _______ _______ _______ _____ _____    ______ ____
ROOT
ATOM      1  C   LIG    1       -0.018   1.503   0.010  0.00  0.00    +0.090 C 
ATOM      2  C   LIG    1        0.002  -0.004   0.002  0.00  0.00    -0.080 A 
ATOM      3  C   LIG    1        0.006  -0.689  -1.199  0.00  0.00    -0.010 A 
ATOM      4  C   LIG    1        0.022  -2.070  -1.203  0.00  0.00    +0.020 A 
ATOM      5  C   LIG    1        0.036  -2.777  -0.011  0.00  0.00    -0.120 A 
ATOM      6  C   LIG    1        0.038  -2.096   1.194  0.00  0.00    +0.120 A 
ATOM      7  N   LIG    1        0.070  -2.741   2.429  0.00  0.00    -0.630 N 
ATOM      8  H   LIG    1        0.984  -2.669   2.851  0.00  0.00    +0.350 HD
ATOM      9  C   LIG    1       -0.368  -4.136   2.361  0.00  0.00    +0.170 C 
ATOM     10  C   LIG    1        0.451  -4.856   1.282  0.00  0.00    +0.000 C 
ATOM     11  C   LIG    1       -0.144  -4.812   3.715  0.00  0.00    +0.050 C 
ATOM     12  C   LIG    1        0.046  -4.283  -0.078  0.00  0.00    +0.030 C 
ATOM     13  C   LIG    1        1.047  -4.739  -1.141  0.00  0.00    +0.040 C 
ATOM     14  C   LIG    1        0.023  -0.700   1.192  0.00  0.00    -0.090 A 
ATOM     15  C   LIG    1        0.017   0.050   2.498  0.00  0.00    +0.100 C 
ENDROOT
TORSDOF 0
ENDMDL
MODEL      912
REMARK  Name = ZINC000001462460
REMARK                            x       y       z     vdW  Elec       q    Type
REMARK                         _______ _______ _______ _____ _____    ______ ____
ROOT
ATOM      1  C   LIG    1       -0.018   1.503   0.010  0.00  0.00    +0.090 C 
ATOM      2  C   LIG    1        0.002  -0.004   0.002  0.00  0.00    -0.060 A 
ATOM      3  C   LIG    1        0.006  -0.685  -1.207  0.00  0.00    -0.030 A 
ATOM      4  C   LIG    1        0.024  -2.051  -1.235  0.00  0.00    -0.030 A 
ATOM      5  C   LIG    1        0.039  -2.770  -0.039  0.00  0.00    -0.100 A 
ATOM      6  C   LIG    1        0.036  -2.083   1.191  0.00  0.00    +0.100 A 
ATOM      7  N   LIG    1        0.055  -3.033   2.189  0.00  0.00    -0.590 N 
ATOM      8  H   LIG    1        0.059  -2.841   3.140  0.00  0.00    +0.410 HD
ATOM      9  C   LIG    1        0.067  -4.285   1.642  0.00  0.00    +0.070 A 
ATOM     10  C   LIG    1        0.085  -5.598   2.389  0.00  0.00    +0.100 C 
ATOM     11  C   LIG    1       -0.332  -6.713   1.424  0.00  0.00    +0.030 C 
ATOM     12  C   LIG    1        0.497  -6.613   0.140  0.00  0.00    +0.010 C 
ATOM     13  C   LIG    1        0.069  -5.366  -0.644  0.00  0.00    +0.090 C 
ATOM     14  C   LIG    1        0.058  -4.190   0.298  0.00  0.00    -0.160 A 
ATOM     15  C   LIG    1        0.027  -2.779  -2.555  0.00  0.00    +0.090 C 
ATOM     16  C   LIG    1        0.023  -0.693   1.195  0.00  0.00    -0.020 A 
ENDROOT
TORSDOF 0
ENDMDL
MODEL      913
REMARK  Name = ZINC000001467750
REMARK                            x       y       z     vdW  Elec       q    Type
REMARK                         _______ _______ _______ _____ _____    ______ ____
ROOT
ATOM      1  C   LIG    1       -0.018   1.503   0.010  0.00  0.00    +0.100 C 
ATOM      2  C   LIG    1        0.002  -0.004   0.002  0.00  0.00    -0.110 A 
ATOM      3  C   LIG    1        0.006  -0.689  -1.198  0.00  0.00    +0.020 A 
ATOM      4  C   LIG    1        0.024  -2.071  -1.206  0.00  0.00    +0.000 A 
ATOM      5  C   LIG    1        0.039  -2.772  -0.014  0.00  0.00    +0.010 A 
ATOM      6  C   LIG    1        0.036  -2.092   1.188  0.00  0.00    -0.100 A 
ATOM      7  C   LIG    1        0.023  -0.705   1.199  0.00  0.00    +0.100 A 
ENDROOT
BRANCH   6   8
ATOM      8  C   LIG    1        0.053  -2.856   2.487  0.00  0.00    +0.030 C 
ATOM      9  C   LIG    1       -1.184  -3.753   2.567  0.00  0.00    +0.010 C 
ATOM     10  C   LIG    1       -1.167  -4.529   3.886  0.00  0.00    +0.000 C 
ATOM     11  C   LIG    1        0.095  -5.393   3.953  0.00  0.00    +0.000 C 
ATOM     12  C   LIG    1        1.331  -4.495   3.873  0.00  0.00    +0.000 C 
ATOM     13  C   LIG    1        1.314  -3.719   2.554  0.00  0.00    +0.010 C 
ENDBRANCH   6   8
BRANCH   7  14
ATOM     14  O   LIG    1        0.020  -0.034   2.381  0.00  0.00    -0.490 OA
ATOM     15  H   LIG    1        0.902   0.169   2.721  0.00  0.00    +0.390 HD
ENDBRANCH   7  14
TORSDOF 2
ENDMDL
MODEL      914
REMARK  Name = ZINC000001467749
REMARK                            x       y       z     vdW  Elec       q    Type
REMARK                         _______ _______ _______ _____ _____    ______ ____
ROOT
ATOM      1  C   LIG    1       -0.018   1.503   0.010  0.00  0.00    +0.090 C 
ATOM      2  C   LIG    1        0.002  -0.004   0.002  0.00  0.00    -0.070 A 
ATOM      3  C   LIG    1        0.006  -0.688  -1.199  0.00  0.00    -0.010 A 
ATOM      4  C   LIG    1        0.024  -2.071  -1.210  0.00  0.00    +0.030 A 
ATOM      5  C   LIG    1        0.040  -2.772  -0.020  0.00  0.00    -0.110 A 
ATOM      6  C   LIG    1        0.036  -2.088   1.187  0.00  0.00    +0.110 A 
ATOM      7  C   LIG    1        0.023  -0.701   1.195  0.00  0.00    -0.020 A 
ENDROOT
BRANCH   5   8
ATOM      8  C   LIG    1        0.060  -4.279  -0.033  0.00  0.00    +0.030 C 
ATOM      9  C   LIG    1       -1.185  -4.800  -0.753  0.00  0.00    +0.010 C 
ATOM     10  C   LIG    1       -1.164  -6.330  -0.766  0.00  0.00    +0.000 C 
ATOM     11  C   LIG    1        0.089  -6.816  -1.497  0.00  0.00    +0.000 C 
ATOM     12  C   LIG    1        1.335  -6.295  -0.777  0.00  0.00    +0.000 C 
ATOM     13  C   LIG    1        1.313  -4.765  -0.764  0.00  0.00    +0.010 C 
ENDBRANCH   5   8
BRANCH   6  14
ATOM     14  O   LIG    1        0.051  -2.775   2.359  0.00  0.00    -0.500 OA
ATOM     15  H   LIG    1        0.939  -2.962   2.694  0.00  0.00    +0.390 HD
ENDBRANCH   6  14
TORSDOF 2
ENDMDL
MODEL      915
REMARK  Name = ZINC000001511770
REMARK                            x       y       z     vdW  Elec       q    Type
REMARK                         _______ _______ _______ _____ _____    ______ ____
ROOT
ATOM      1  C   LIG    1       -0.018   1.503   0.010  0.00  0.00    +0.080 C 
ATOM      2  C   LIG    1        0.002  -0.004   0.002  0.00  0.00    +0.020 A 
ATOM      3  C   LIG    1        0.003  -0.577  -1.259  0.00  0.00    -0.050 A 
ATOM      4  C   LIG    1        0.020  -1.917  -1.611  0.00  0.00    +0.050 A 
ATOM      5  C   LIG    1        0.040  -3.022  -0.755  0.00  0.00    -0.100 A 
ATOM      6  C   LIG    1        0.057  -4.358  -1.157  0.00  0.00    -0.060 A 
ATOM      7  C   LIG    1        0.074  -5.154  -0.026  0.00  0.00    +0.010 A 
ATOM      8  C   LIG    1        0.069  -4.370   1.114  0.00  0.00    -0.060 A 
ATOM      9  C   LIG    1        0.048  -3.030   0.727  0.00  0.00    -0.090 A 
ATOM     10  C   LIG    1        0.037  -1.934   1.594  0.00  0.00    +0.050 A 
ATOM     11  C   LIG    1        0.049  -2.251   3.068  0.00  0.00    +0.090 C 
ATOM     12  C   LIG    1        0.017  -2.218  -3.088  0.00  0.00    +0.090 C 
ATOM     13  C   LIG    1        0.022  -0.591   1.256  0.00  0.00    -0.050 A 
ENDROOT
TORSDOF 0
ENDMDL
MODEL      916
REMARK  Name = ZINC000001512589
REMARK                            x       y       z     vdW  Elec       q    Type
REMARK                         _______ _______ _______ _____ _____    ______ ____
ROOT
ATOM      1  C   LIG    1        0.059  -4.247  -0.021  0.00  0.00    +0.050 C 
ATOM      2  C   LIG    1        0.074  -4.925   1.138  0.00  0.00    +0.010 C 
ENDROOT
BRANCH   1   7
ATOM      3  C   LIG    1       -0.018   1.503   0.010  0.00  0.00    +0.090 C 
ATOM      4  C   LIG    1        0.002  -0.004   0.002  0.00  0.00    -0.080 A 
ATOM      5  C   LIG    1        0.006  -0.686  -1.202  0.00  0.00    +0.010 A 
ATOM      6  C   LIG    1        0.024  -2.065  -1.218  0.00  0.00    +0.030 A 
ATOM      7  C   LIG    1        0.039  -2.773  -0.013  0.00  0.00    -0.070 A 
ATOM      8  C   LIG    1        0.036  -2.078   1.199  0.00  0.00    +0.030 A 
ATOM      9  C   LIG    1        0.023  -0.699   1.198  0.00  0.00    +0.000 A 
ENDBRANCH   1   7
BRANCH   2  10
ATOM     10  C   LIG    1        0.094  -6.398   1.130  0.00  0.00    -0.010 A 
ATOM     11  C   LIG    1        0.104  -7.112  -0.076  0.00  0.00    -0.030 A 
ATOM     12  C   LIG    1        0.123  -8.490  -0.037  0.00  0.00    +0.260 A 
ATOM     13  N   LIG    1        0.132  -9.135   1.115  0.00  0.00    -0.490 NA
ATOM     14  C   LIG    1        0.123  -8.503   2.273  0.00  0.00    +0.260 A 
ATOM     15  C   LIG    1        0.109  -7.125   2.328  0.00  0.00    -0.030 A 
ENDBRANCH   2  10
TORSDOF 2
ENDMDL
MODEL      917
REMARK  Name = ZINC000001519670
REMARK                            x       y       z     vdW  Elec       q    Type
REMARK                         _______ _______ _______ _____ _____    ______ ____
ROOT
ATOM      1  C   LIG    1       -1.412  -0.526   0.013  0.00  0.00    -0.070 A 
ATOM      2  C   LIG    1       -2.259  -0.205   1.055  0.00  0.00    +0.030 A 
ATOM      3  C   LIG    1       -3.557  -0.683   1.065  0.00  0.00    +0.020 A 
ATOM      4  C   LIG    1       -4.010  -1.483   0.033  0.00  0.00    +0.020 A 
ATOM      5  C   LIG    1       -3.167  -1.807  -1.012  0.00  0.00    +0.010 A 
ATOM      6  C   LIG    1       -1.866  -1.325  -1.028  0.00  0.00    +0.120 A 
ENDROOT
BRANCH   6   7
ATOM      7  N   LIG    1       -1.008  -1.652  -2.088  0.00  0.00    -0.400 N 
ATOM      8  C   LIG    1       -0.257  -0.766  -2.807  0.00  0.00    +0.150 A 
ATOM      9  C   LIG    1        0.434  -1.458  -3.736  0.00  0.00    -0.050 A 
ATOM     10  C   LIG    1        0.100  -2.819  -3.586  0.00  0.00    -0.050 A 
ATOM     11  C   LIG    1       -0.780  -2.910  -2.568  0.00  0.00    +0.150 A 
ENDBRANCH   6   7
BRANCH   1  13
ATOM     12  C   LIG    1       -0.019   1.526   0.010  0.00  0.00    +0.030 C 
ATOM     13  C   LIG    1        0.002  -0.004   0.002  0.00  0.00    +0.020 C 
ATOM     14  C   LIG    1        0.742  -0.511   1.242  0.00  0.00    +0.030 C 
ENDBRANCH   1  13
TORSDOF 2
ENDMDL
MODEL      918
REMARK  Name = ZINC000001565466
REMARK                            x       y       z     vdW  Elec       q    Type
REMARK                         _______ _______ _______ _____ _____    ______ ____
ROOT
ATOM      1  C   LIG    1       -0.018   1.503   0.010  0.00  0.00    +0.100 C 
ATOM      2  C   LIG    1        0.002  -0.004   0.002  0.00  0.00    -0.060 A 
ATOM      3  C   LIG    1        0.006  -0.703  -1.217  0.00  0.00    -0.040 A 
ATOM      4  C   LIG    1       -0.009  -0.025  -2.447  0.00  0.00    +0.020 A 
ATOM      5  C   LIG    1       -0.004  -0.735  -3.608  0.00  0.00    +0.020 A 
ATOM      6  C   LIG    1        0.015  -2.129  -3.596  0.00  0.00    +0.020 A 
ATOM      7  C   LIG    1        0.030  -2.820  -2.424  0.00  0.00    +0.020 A 
ATOM      8  C   LIG    1        0.026  -2.120  -1.205  0.00  0.00    -0.040 A 
ATOM      9  C   LIG    1        0.041  -2.799   0.026  0.00  0.00    -0.030 A 
ATOM     10  C   LIG    1        0.037  -2.087   1.188  0.00  0.00    +0.040 A 
ATOM     11 CL   LIG    1        0.066  -4.535   0.066  0.00  0.00    -0.060 Cl
ATOM     12  C   LIG    1        0.023  -0.694   1.175  0.00  0.00    +0.020 A 
ENDROOT
TORSDOF 0
ENDMDL
MODEL      919
REMARK  Name = ZINC000001575417
REMARK                            x       y       z     vdW  Elec       q    Type
REMARK                         _______ _______ _______ _____ _____    ______ ____
ROOT
ATOM      1  C   LIG    1       -0.018   1.503   0.010  0.00  0.00    +0.090 C 
ATOM      2  C   LIG    1        0.002  -0.004   0.002  0.00  0.00    -0.070 A 
ATOM      3  C   LIG    1        0.006  -0.682  -1.178  0.00  0.00    +0.000 A 
ATOM      4  C   LIG    1        0.024  -2.075  -1.206  0.00  0.00    +0.010 A 
ATOM      5  C   LIG    1        0.039  -2.799  -0.053  0.00  0.00    +0.020 A 
ATOM      6  C   LIG    1        0.036  -2.134   1.185  0.00  0.00    -0.050 A 
ATOM      7  C   LIG    1        0.052  -2.847   2.396  0.00  0.00    +0.020 A 
ATOM      8  C   LIG    1        0.049  -2.169   3.576  0.00  0.00    -0.080 A 
ATOM      9  C   LIG    1        0.031  -0.776   3.604  0.00  0.00    -0.080 A 
ATOM     10  C   LIG    1        0.016  -0.053   2.451  0.00  0.00    +0.020 A 
ATOM     11  C   LIG    1        0.028  -0.060   4.930  0.00  0.00    +0.090 C 
ATOM     12  C   LIG    1        0.065  -2.937   4.873  0.00  0.00    +0.090 C 
ATOM     13  C   LIG    1        0.023  -0.717   1.213  0.00  0.00    -0.050 A 
ENDROOT
TORSDOF 0
ENDMDL
MODEL      920
REMARK  Name = ZINC000001577254
REMARK                            x       y       z     vdW  Elec       q    Type
REMARK                         _______ _______ _______ _____ _____    ______ ____
ROOT
ATOM      1  C   LIG    1        1.569  -3.871  -2.700  0.00  0.00    +0.220 A 
ATOM      2  C   LIG    1        1.058  -4.786  -1.790  0.00  0.00    -0.060 A 
ATOM      3  C   LIG    1        1.202  -6.141  -2.019  0.00  0.00    +0.070 A 
ATOM      4  C   LIG    1        1.855  -6.585  -3.156  0.00  0.00    -0.090 A 
ATOM      5  C   LIG    1        2.365  -5.675  -4.064  0.00  0.00    +0.070 A 
ATOM      6 CL   LIG    1        2.033  -8.288  -3.442  0.00  0.00    -0.080 Cl
ATOM      7  C   LIG    1        2.219  -4.320  -3.843  0.00  0.00    -0.060 A 
ENDROOT
BRANCH   1   8
ATOM      8  N   LIG    1        1.425  -2.500  -2.470  0.00  0.00    -0.750 N 
ATOM      9  H   LIG    1        1.779  -1.861  -3.109  0.00  0.00    +0.400 HD
BRANCH   8  10
ATOM     10  C   LIG    1        0.739  -2.027  -1.265  0.00  0.00    +0.240 C 
BRANCH  10  11
ATOM     11  C   LIG    1        0.718  -0.497  -1.257  0.00  0.00    +0.010 C 
BRANCH  11  13
ATOM     12  C   LIG    1       -0.019   1.526   0.010  0.00  0.00    +0.010 C 
ATOM     13  C   LIG    1        0.002  -0.004   0.002  0.00  0.00    +0.020 C 
ENDBRANCH  11  13
ENDBRANCH  10  11
ENDBRANCH   8  10
ENDBRANCH   1   8
TORSDOF 4
ENDMDL
MODEL      921
REMARK  Name = ZINC000001580986
REMARK                            x       y       z     vdW  Elec       q    Type
REMARK                         _______ _______ _______ _____ _____    ______ ____
ROOT
ATOM      1  C   LIG    1       -1.944  -2.313   2.642  0.00  0.00    +0.090 C 
ATOM      2  C   LIG    1       -1.033  -2.099   1.460  0.00  0.00    -0.070 A 
ATOM      3  C   LIG    1       -1.029  -3.004   0.418  0.00  0.00    +0.000 A 
ATOM      4  C   LIG    1       -0.194  -2.809  -0.667  0.00  0.00    +0.000 A 
ATOM      5  C   LIG    1        0.641  -1.707  -0.715  0.00  0.00    +0.000 A 
ATOM      6  C   LIG    1        0.644  -0.795   0.321  0.00  0.00    +0.020 A 
ATOM      7  C   LIG    1       -0.199  -0.984   1.414  0.00  0.00    -0.050 A 
ENDROOT
BRANCH   7   8
ATOM      8  C   LIG    1       -0.200  -0.007   2.531  0.00  0.00    -0.050 A 
ATOM      9  C   LIG    1        0.916   0.112   3.357  0.00  0.00    +0.020 A 
ATOM     10  C   LIG    1        0.910   1.023   4.394  0.00  0.00    +0.000 A 
ATOM     11  C   LIG    1       -0.201   1.817   4.614  0.00  0.00    +0.010 A 
ATOM     12  C   LIG    1       -1.312   1.702   3.798  0.00  0.00    +0.000 A 
ATOM     13  C   LIG    1       -1.314   0.799   2.755  0.00  0.00    -0.070 A 
ATOM     14  C   LIG    1       -2.525   0.676   1.865  0.00  0.00    +0.090 C 
ENDBRANCH   7   8
TORSDOF 1
ENDMDL
MODEL      922
REMARK  Name = ZINC000001586760
REMARK                            x       y       z     vdW  Elec       q    Type
REMARK                         _______ _______ _______ _____ _____    ______ ____
ROOT
ATOM      1  C   LIG    1        1.503  -2.548   2.473  0.00  0.00    -0.020 C 
ATOM      2  C   LIG    1        0.719  -2.160   3.728  0.00  0.00    +0.000 C 
ATOM      3  C   LIG    1        1.459  -2.667   4.968  0.00  0.00    +0.000 C 
ATOM      4  C   LIG    1        1.589  -4.190   4.897  0.00  0.00    +0.000 C 
ATOM      5  C   LIG    1        2.373  -4.577   3.642  0.00  0.00    +0.000 C 
ATOM      6  C   LIG    1        1.633  -4.070   2.402  0.00  0.00    +0.000 C 
ENDROOT
BRANCH   1   7
ATOM      7  C   LIG    1        0.763  -2.041   1.233  0.00  0.00    +0.000 C 
BRANCH   7   8
ATOM      8  C   LIG    1        0.742  -0.511   1.242  0.00  0.00    +0.000 C 
BRANCH   8  10
ATOM      9  C   LIG    1       -0.019   1.526   0.010  0.00  0.00    +0.000 C 
ATOM     10  C   LIG    1        0.002  -0.004   0.002  0.00  0.00    -0.010 C 
ENDBRANCH   8  10
ENDBRANCH   7   8
ENDBRANCH   1   7
TORSDOF 3
ENDMDL
MODEL      923
REMARK  Name = ZINC000001586389
REMARK                            x       y       z     vdW  Elec       q    Type
REMARK                         _______ _______ _______ _____ _____    ______ ____
ROOT
ATOM      1  N   LIG    1        0.059  -4.167  -0.021  0.00  0.00    -0.750 N 
ATOM      2  H   LIG    1        0.062  -4.648  -0.864  0.00  0.00    +0.400 HD
ENDROOT
BRANCH   1   7
ATOM      3  C   LIG    1       -0.018   1.503   0.010  0.00  0.00    +0.070 C 
ATOM      4  C   LIG    1        0.002  -0.004   0.002  0.00  0.00    -0.150 A 
ATOM      5  C   LIG    1        0.006  -0.687  -1.200  0.00  0.00    +0.050 A 
ATOM      6  C   LIG    1        0.024  -2.068  -1.212  0.00  0.00    -0.070 A 
ATOM      7  C   LIG    1        0.040  -2.771  -0.013  0.00  0.00    +0.210 A 
ATOM      8  C   LIG    1        0.036  -2.081   1.193  0.00  0.00    -0.080 A 
ATOM      9  C   LIG    1        0.023  -0.700   1.197  0.00  0.00    +0.050 A 
ENDBRANCH   1   7
BRANCH   1  10
ATOM     10  C   LIG    1        0.075  -4.907   1.244  0.00  0.00    +0.310 C 
BRANCH  10  11
ATOM     11  C   LIG    1        0.094  -6.387   0.960  0.00  0.00    -0.110 A 
ATOM     12  C   LIG    1       -1.094  -7.081   0.830  0.00  0.00    +0.020 A 
ATOM     13  C   LIG    1       -1.076  -8.439   0.570  0.00  0.00    +0.000 A 
ATOM     14  C   LIG    1        0.130  -9.102   0.440  0.00  0.00    +0.010 A 
ATOM     15  C   LIG    1        1.318  -8.407   0.569  0.00  0.00    +0.000 A 
ATOM     16  C   LIG    1        1.300  -7.049   0.825  0.00  0.00    +0.020 A 
ENDBRANCH  10  11
ENDBRANCH   1  10
TORSDOF 3
ENDMDL
MODEL      924
REMARK  Name = ZINC000001589955
REMARK                            x       y       z     vdW  Elec       q    Type
REMARK                         _______ _______ _______ _____ _____    ______ ____
ROOT
ATOM      1  C   LIG    1        0.863  -1.968  -1.486  0.00  0.00    +0.000 C 
ATOM      2  C   LIG    1        2.149  -2.217  -2.277  0.00  0.00    +0.040 C 
ATOM      3  C   LIG    1        1.945  -1.702  -3.708  0.00  0.00    +0.000 C 
ATOM      4  C   LIG    1        0.903  -2.585  -4.397  0.00  0.00    +0.050 C 
ATOM      5  C   LIG    1       -0.307  -2.735  -3.522  0.00  0.00    -0.020 C 
ATOM      6  C   LIG    1       -0.322  -2.471  -2.258  0.00  0.00    -0.130 C 
ATOM      7  C   LIG    1       -1.611  -2.681  -1.507  0.00  0.00    +0.070 C 
ENDROOT
BRANCH   3   8
ATOM      8  C   LIG    1        3.269  -1.769  -4.472  0.00  0.00    -0.020 C 
ATOM      9  C   LIG    1        4.312  -0.902  -3.763  0.00  0.00    +0.010 C 
ATOM     10  C   LIG    1        3.062  -1.254  -5.897  0.00  0.00    +0.010 C 
ENDBRANCH   3   8
BRANCH   1  11
ATOM     11  C   LIG    1        0.707  -0.490  -1.238  0.00  0.00    +0.370 C 
ATOM     12  O   LIG    1        1.148   0.305  -2.033  0.00  0.00    -0.440 OA
BRANCH  11  14
ATOM     13  C   LIG    1       -0.019   1.526   0.010  0.00  0.00    +0.030 C 
ATOM     14  C   LIG    1        0.002  -0.004   0.002  0.00  0.00    +0.020 C 
ENDBRANCH  11  14
ENDBRANCH   1  11
TORSDOF 3
ENDMDL
MODEL      925
REMARK  Name = ZINC000001589957
REMARK                            x       y       z     vdW  Elec       q    Type
REMARK                         _______ _______ _______ _____ _____    ______ ____
ROOT
ATOM      1  C   LIG    1        0.863  -1.968  -1.486  0.00  0.00    +0.000 C 
ATOM      2  C   LIG    1        2.149  -2.217  -2.277  0.00  0.00    +0.040 C 
ATOM      3  C   LIG    1        2.157  -3.679  -2.742  0.00  0.00    -0.010 C 
ATOM      4  C   LIG    1        1.040  -3.867  -3.771  0.00  0.00    +0.070 C 
ATOM      5  C   LIG    1       -0.247  -3.300  -3.246  0.00  0.00    -0.030 C 
ATOM      6  C   LIG    1       -0.322  -2.471  -2.258  0.00  0.00    -0.120 C 
ATOM      7  C   LIG    1       -1.687  -1.980  -1.850  0.00  0.00    +0.070 C 
ENDROOT
BRANCH   3   8
ATOM      8  C   LIG    1        3.509  -4.010  -3.377  0.00  0.00    -0.020 C 
ATOM      9  C   LIG    1        3.513  -5.468  -3.839  0.00  0.00    +0.010 C 
ATOM     10  C   LIG    1        4.622  -3.797  -2.349  0.00  0.00    +0.010 C 
ENDBRANCH   3   8
BRANCH   1  11
ATOM     11  C   LIG    1        0.707  -0.490  -1.238  0.00  0.00    +0.360 C 
ATOM     12  O   LIG    1        1.148   0.305  -2.033  0.00  0.00    -0.450 OA
BRANCH  11  14
ATOM     13  C   LIG    1       -0.019   1.526   0.010  0.00  0.00    +0.030 C 
ATOM     14  C   LIG    1        0.002  -0.004   0.002  0.00  0.00    +0.020 C 
ENDBRANCH  11  14
ENDBRANCH   1  11
TORSDOF 3
ENDMDL
MODEL      926
REMARK  Name = ZINC000001598533
REMARK                            x       y       z     vdW  Elec       q    Type
REMARK                         _______ _______ _______ _____ _____    ______ ____
ROOT
ATOM      1  C   LIG    1       -3.104  -2.436   0.274  0.00  0.00    -0.030 C 
ATOM      2  C   LIG    1       -3.213  -3.926   0.612  0.00  0.00    +0.030 C 
ATOM      3  C   LIG    1       -4.662  -4.384   0.431  0.00  0.00    +0.010 C 
ATOM      4  C   LIG    1       -5.071  -4.243  -1.036  0.00  0.00    +0.030 C 
ATOM      5  C   LIG    1       -5.032  -2.765  -1.436  0.00  0.00    +0.020 C 
ATOM      6  C   LIG    1       -3.660  -2.212  -1.115  0.00  0.00    +0.360 C 
ATOM      7  O   LIG    1       -3.024  -1.613  -1.948  0.00  0.00    -0.450 OA
ENDROOT
BRANCH   1   8
ATOM      8  C   LIG    1       -1.637  -2.005   0.316  0.00  0.00    +0.040 C 
BRANCH   8   9
ATOM      9  C   LIG    1       -1.544  -0.489   0.129  0.00  0.00    -0.010 C 
BRANCH   9  11
ATOM     10  C   LIG    1       -2.208   1.722   1.083  0.00  0.00    +0.000 C 
ATOM     11  C   LIG    1       -2.189   0.212   1.326  0.00  0.00    +0.000 C 
ENDBRANCH   9  11
BRANCH   9  12
ATOM     12  C   LIG    1       -0.074  -0.077   0.027  0.00  0.00    +0.000 C 
ATOM     13  C   LIG    1        0.531  -0.659  -1.252  0.00  0.00    +0.000 C 
ENDBRANCH   9  12
ENDBRANCH   8   9
ENDBRANCH   1   8
TORSDOF 4
ENDMDL
MODEL      927
REMARK  Name = ZINC000001598175
REMARK                            x       y       z     vdW  Elec       q    Type
REMARK                         _______ _______ _______ _____ _____    ______ ____
ROOT
ATOM      1  C   LIG    1        1.459  -2.371   2.492  0.00  0.00    -0.040 C 
ENDROOT
BRANCH   1   2
ATOM      2  C   LIG    1        2.904  -1.976   2.331  0.00  0.00    +0.360 C 
ATOM      3  O   LIG    1        3.329  -1.672   1.242  0.00  0.00    -0.450 OA
ATOM      4  C   LIG    1        3.818  -1.959   3.529  0.00  0.00    +0.050 C 
ENDBRANCH   1   2
BRANCH   1   5
ATOM      5  C   LIG    1        0.618  -1.679   1.417  0.00  0.00    +0.030 C 
BRANCH   5   6
ATOM      6  C   LIG    1        0.650  -0.166   1.640  0.00  0.00    +0.000 C 
BRANCH   6   8
ATOM      7  C   LIG    1       -0.158   2.039   0.788  0.00  0.00    +0.000 C 
ATOM      8  C   LIG    1       -0.190   0.526   0.565  0.00  0.00    +0.000 C 
ENDBRANCH   6   8
ENDBRANCH   5   6
ENDBRANCH   1   5
BRANCH   1   9
ATOM      9  C   LIG    1        1.326  -3.889   2.345  0.00  0.00    +0.030 C 
BRANCH   9  10
ATOM     10  C   LIG    1       -0.114  -4.306   2.649  0.00  0.00    +0.010 C 
BRANCH  10  11
ATOM     11  C   LIG    1       -0.217  -5.833   2.629  0.00  0.00    -0.010 C 
ATOM     12  C   LIG    1       -1.657  -6.251   2.933  0.00  0.00    +0.000 C 
ENDBRANCH  10  11
ENDBRANCH   9  10
ENDBRANCH   1   9
TORSDOF 7
ENDMDL
MODEL      928
REMARK  Name = ZINC000001600022
REMARK                            x       y       z     vdW  Elec       q    Type
REMARK                         _______ _______ _______ _____ _____    ______ ____
ROOT
ATOM      1  C   LIG    1       -0.018   1.503   0.010  0.00  0.00    +0.090 C 
ATOM      2  C   LIG    1        0.002  -0.004   0.002  0.00  0.00    -0.080 A 
ATOM      3  C   LIG    1        0.006  -0.688  -1.200  0.00  0.00    +0.010 A 
ATOM      4  C   LIG    1        0.025  -2.067  -1.215  0.00  0.00    +0.030 A 
ATOM      5  C   LIG    1        0.041  -2.777  -0.013  0.00  0.00    -0.060 A 
ATOM      6  C   LIG    1        0.037  -2.080   1.192  0.00  0.00    -0.090 A 
ATOM      7  C   LIG    1        0.056  -3.097   2.306  0.00  0.00    +0.160 C 
ATOM      8  C   LIG    1        0.071  -4.449   1.636  0.00  0.00    -0.090 A 
ATOM      9  C   LIG    1        0.090  -5.732   2.140  0.00  0.00    +0.020 A 
ATOM     10  C   LIG    1        0.101  -6.815   1.279  0.00  0.00    -0.080 A 
ATOM     11  C   LIG    1        0.092  -6.613  -0.089  0.00  0.00    +0.010 A 
ATOM     12  C   LIG    1        0.073  -5.333  -0.603  0.00  0.00    +0.030 A 
ATOM     13  C   LIG    1        0.122  -8.217   1.833  0.00  0.00    +0.090 C 
ATOM     14  C   LIG    1        0.062  -4.236   0.260  0.00  0.00    -0.060 A 
ATOM     15  C   LIG    1        0.023  -0.701   1.197  0.00  0.00    +0.020 A 
ENDROOT
TORSDOF 0
ENDMDL
MODEL      929
REMARK  Name = ZINC000001601446
REMARK                            x       y       z     vdW  Elec       q    Type
REMARK                         _______ _______ _______ _____ _____    ______ ____
ROOT
ATOM      1  C   LIG    1       -4.535  -4.827   0.019  0.00  0.00    -0.030 A 
ATOM      2  C   LIG    1       -5.497  -3.824   0.028  0.00  0.00    -0.070 A 
ATOM      3  C   LIG    1       -6.839  -4.152   0.040  0.00  0.00    +0.080 A 
ATOM      4  C   LIG    1       -7.229  -5.477   0.042  0.00  0.00    -0.080 A 
ATOM      5  C   LIG    1       -6.272  -6.485   0.033  0.00  0.00    +0.230 A 
ATOM      6  C   LIG    1       -4.923  -6.160   0.016  0.00  0.00    -0.060 A 
ENDROOT
BRANCH   5   7
ATOM      7  N   LIG    1       -6.667  -7.825   0.035  0.00  0.00    -0.880 N 
ATOM      8  H   LIG    1       -5.999  -8.528   0.028  0.00  0.00    +0.400 HD
ATOM      9  H   LIG    1       -7.610  -8.052   0.043  0.00  0.00    +0.400 HD
ENDBRANCH   5   7
BRANCH   1  10
ATOM     10  S   LIG    1       -2.823  -4.407   0.005  0.00  0.00    -0.120 S 
BRANCH  10  11
ATOM     11  C   LIG    1       -2.848  -2.593   0.015  0.00  0.00    +0.070 C 
BRANCH  11  12
ATOM     12  C   LIG    1       -1.413  -2.063   0.004  0.00  0.00    +0.030 C 
BRANCH  12  13
ATOM     13  C   LIG    1       -1.433  -0.534   0.013  0.00  0.00    +0.010 C 
BRANCH  13  15
ATOM     14  C   LIG    1       -0.019   1.526   0.010  0.00  0.00    +0.000 C 
ATOM     15  C   LIG    1        0.002  -0.004   0.002  0.00  0.00    -0.010 C 
ENDBRANCH  13  15
ENDBRANCH  12  13
ENDBRANCH  11  12
ENDBRANCH  10  11
ENDBRANCH   1  10
TORSDOF 6
ENDMDL
MODEL      930
REMARK  Name = ZINC000001602832
REMARK                            x       y       z     vdW  Elec       q    Type
REMARK                         _______ _______ _______ _____ _____    ______ ____
ROOT
ATOM      1  C   LIG    1        1.455  -2.521  -2.524  0.00  0.00    -0.020 C 
ATOM      2  C   LIG    1        0.648  -2.120  -3.760  0.00  0.00    +0.020 C 
ENDROOT
BRANCH   1   3
ATOM      3  C   LIG    1        0.739  -2.027  -1.265  0.00  0.00    +0.000 C 
BRANCH   3   4
ATOM      4  C   LIG    1        0.718  -0.497  -1.257  0.00  0.00    +0.000 C 
BRANCH   4   6
ATOM      5  C   LIG    1       -0.019   1.526   0.010  0.00  0.00    +0.000 C 
ATOM      6  C   LIG    1        0.002  -0.004   0.002  0.00  0.00    -0.010 C 
ENDBRANCH   4   6
ENDBRANCH   3   4
ENDBRANCH   1   3
BRANCH   1   7
ATOM      7  C   LIG    1        1.586  -4.044  -2.472  0.00  0.00    +0.000 C 
BRANCH   7   8
ATOM      8  C   LIG    1        2.410  -4.526  -3.668  0.00  0.00    -0.010 C 
ATOM      9  C   LIG    1        2.542  -6.050  -3.616  0.00  0.00    +0.000 C 
ENDBRANCH   7   8
ENDBRANCH   1   7
TORSDOF 5
ENDMDL
MODEL      931
REMARK  Name = ZINC000001602836
REMARK                            x       y       z     vdW  Elec       q    Type
REMARK                         _______ _______ _______ _____ _____    ______ ____
ROOT
ATOM      1  C   LIG    1       -2.848  -2.593   0.015  0.00  0.00    +0.000 C 
ENDROOT
BRANCH   1   2
ATOM      2  C   LIG    1       -1.413  -2.063   0.004  0.00  0.00    +0.000 C 
BRANCH   2   3
ATOM      3  C   LIG    1       -1.433  -0.534   0.013  0.00  0.00    +0.000 C 
BRANCH   3   5
ATOM      4  C   LIG    1       -0.019   1.526   0.010  0.00  0.00    +0.000 C 
ATOM      5  C   LIG    1        0.002  -0.004   0.002  0.00  0.00    -0.010 C 
ENDBRANCH   3   5
ENDBRANCH   2   3
ENDBRANCH   1   2
BRANCH   1   6
ATOM      6  C   LIG    1       -2.827  -4.123   0.007  0.00  0.00    +0.000 C 
BRANCH   6   7
ATOM      7  C   LIG    1       -4.263  -4.652   0.018  0.00  0.00    -0.030 C 
ATOM      8  C   LIG    1       -4.939  -4.264   1.334  0.00  0.00    +0.010 C 
ATOM      9  C   LIG    1       -4.245  -6.176  -0.116  0.00  0.00    +0.000 C 
ENDBRANCH   6   7
ENDBRANCH   1   6
TORSDOF 5
ENDMDL
MODEL      932
REMARK  Name = ZINC000001602830
REMARK                            x       y       z     vdW  Elec       q    Type
REMARK                         _______ _______ _______ _____ _____    ______ ____
ROOT
ATOM      1  C   LIG    1       -2.848  -2.593   0.015  0.00  0.00    +0.000 C 
ENDROOT
BRANCH   1   2
ATOM      2  C   LIG    1       -2.827  -4.123   0.007  0.00  0.00    -0.020 C 
ATOM      3  C   LIG    1       -2.198  -4.632   1.306  0.00  0.00    +0.020 C 
BRANCH   2   4
ATOM      4  C   LIG    1       -4.258  -4.652  -0.108  0.00  0.00    +0.000 C 
ATOM      5  C   LIG    1       -4.230  -6.176  -0.242  0.00  0.00    +0.000 C 
ENDBRANCH   2   4
ENDBRANCH   1   2
BRANCH   1   6
ATOM      6  C   LIG    1       -1.413  -2.063   0.004  0.00  0.00    +0.000 C 
BRANCH   6   7
ATOM      7  C   LIG    1       -1.433  -0.534   0.013  0.00  0.00    +0.000 C 
BRANCH   7   9
ATOM      8  C   LIG    1       -0.019   1.526   0.010  0.00  0.00    +0.000 C 
ATOM      9  C   LIG    1        0.002  -0.004   0.002  0.00  0.00    -0.010 C 
ENDBRANCH   7   9
ENDBRANCH   6   7
ENDBRANCH   1   6
TORSDOF 5
ENDMDL
MODEL      933
REMARK  Name = ZINC000001605992
REMARK                            x       y       z     vdW  Elec       q    Type
REMARK                         _______ _______ _______ _____ _____    ______ ____
ROOT
ATOM      1  C   LIG    1        1.476  -4.051  -2.532  0.00  0.00    +0.200 C 
ENDROOT
BRANCH   1   2
ATOM      2  O   LIG    1        0.139  -4.545  -2.640  0.00  0.00    -0.560 OA
ATOM      3  H   LIG    1       -0.322  -4.261  -3.441  0.00  0.00    +0.370 HD
ENDBRANCH   1   2
BRANCH   1   4
ATOM      4  C   LIG    1        1.455  -2.521  -2.524  0.00  0.00    -0.020 C 
BRANCH   4   5
ATOM      5  C   LIG    1        0.739  -2.027  -1.265  0.00  0.00    +0.010 C 
BRANCH   5   6
ATOM      6  C   LIG    1        0.718  -0.497  -1.257  0.00  0.00    +0.000 C 
BRANCH   6   8
ATOM      7  C   LIG    1       -0.019   1.526   0.010  0.00  0.00    +0.000 C 
ATOM      8  C   LIG    1        0.002  -0.004   0.002  0.00  0.00    -0.010 C 
ENDBRANCH   6   8
ENDBRANCH   5   6
ENDBRANCH   4   5
ENDBRANCH   1   4
BRANCH   1   9
ATOM      9  C   LIG    1        2.299  -4.543  -3.725  0.00  0.00    -0.020 C 
BRANCH   9  10
ATOM     10  C   LIG    1        2.424  -6.066  -3.663  0.00  0.00    +0.010 C 
BRANCH  10  11
ATOM     11  C   LIG    1        3.247  -6.559  -4.856  0.00  0.00    +0.000 C 
BRANCH  11  12
ATOM     12  C   LIG    1        3.372  -8.082  -4.794  0.00  0.00    -0.010 C 
ATOM     13  C   LIG    1        4.195  -8.575  -5.987  0.00  0.00    +0.000 C 
ENDBRANCH  11  12
ENDBRANCH  10  11
ENDBRANCH   9  10
ENDBRANCH   1   9
TORSDOF 9
ENDMDL
MODEL      934
REMARK  Name = ZINC000001606035
REMARK                            x       y       z     vdW  Elec       q    Type
REMARK                         _______ _______ _______ _____ _____    ______ ____
ROOT
ATOM      1  C   LIG    1        1.524  -4.077   2.464  0.00  0.00    +0.030 C 
ENDROOT
BRANCH   1   2
ATOM      2  C   LIG    1        2.252  -4.577   3.685  0.00  0.00    +0.350 C 
ATOM      3  O   LIG    1        2.708  -3.790   4.480  0.00  0.00    -0.450 OA
BRANCH   2   4
ATOM      4  C   LIG    1        2.413  -6.058   3.914  0.00  0.00    +0.030 C 
BRANCH   4   5
ATOM      5  C   LIG    1        3.184  -6.292   5.215  0.00  0.00    +0.030 C 
BRANCH   5   6
ATOM      6  C   LIG    1        3.346  -7.795   5.447  0.00  0.00    -0.010 C 
ATOM      7  C   LIG    1        4.118  -8.030   6.747  0.00  0.00    +0.000 C 
ENDBRANCH   5   6
ENDBRANCH   4   5
ENDBRANCH   2   4
ENDBRANCH   1   2
BRANCH   1   8
ATOM      8  C   LIG    1        1.503  -2.548   2.473  0.00  0.00    +0.030 C 
BRANCH   8   9
ATOM      9  C   LIG    1        0.763  -2.041   1.233  0.00  0.00    +0.000 C 
BRANCH   9  10
ATOM     10  C   LIG    1        0.742  -0.511   1.242  0.00  0.00    +0.000 C 
BRANCH  10  12
ATOM     11  C   LIG    1       -0.019   1.526   0.010  0.00  0.00    +0.000 C 
ATOM     12  C   LIG    1        0.002  -0.004   0.002  0.00  0.00    -0.010 C 
ENDBRANCH  10  12
ENDBRANCH   9  10
ENDBRANCH   8   9
ENDBRANCH   1   8
TORSDOF 8
ENDMDL
MODEL      935
REMARK  Name = ZINC000001606034
REMARK                            x       y       z     vdW  Elec       q    Type
REMARK                         _______ _______ _______ _____ _____    ______ ____
ROOT
ATOM      1  C   LIG    1        2.264  -4.584   3.704  0.00  0.00    +0.200 C 
ENDROOT
BRANCH   1   2
ATOM      2  O   LIG    1        1.532  -4.223   4.877  0.00  0.00    -0.560 OA
ATOM      3  H   LIG    1        0.637  -4.587   4.910  0.00  0.00    +0.370 HD
ENDBRANCH   1   2
BRANCH   1   4
ATOM      4  C   LIG    1        1.524  -4.077   2.464  0.00  0.00    -0.020 C 
BRANCH   4   5
ATOM      5  C   LIG    1        1.503  -2.548   2.473  0.00  0.00    +0.010 C 
BRANCH   5   6
ATOM      6  C   LIG    1        0.763  -2.041   1.233  0.00  0.00    +0.000 C 
BRANCH   6   7
ATOM      7  C   LIG    1        0.742  -0.511   1.242  0.00  0.00    +0.000 C 
BRANCH   7   9
ATOM      8  C   LIG    1       -0.019   1.526   0.010  0.00  0.00    +0.000 C 
ATOM      9  C   LIG    1        0.002  -0.004   0.002  0.00  0.00    -0.010 C 
ENDBRANCH   7   9
ENDBRANCH   6   7
ENDBRANCH   5   6
ENDBRANCH   4   5
ENDBRANCH   1   4
BRANCH   1  10
ATOM     10  C   LIG    1        2.393  -6.107   3.633  0.00  0.00    -0.020 C 
BRANCH  10  11
ATOM     11  C   LIG    1        3.240  -6.602   4.807  0.00  0.00    +0.010 C 
BRANCH  11  12
ATOM     12  C   LIG    1        3.370  -8.125   4.737  0.00  0.00    -0.010 C 
ATOM     13  C   LIG    1        4.217  -8.619   5.911  0.00  0.00    +0.000 C 
ENDBRANCH  11  12
ENDBRANCH  10  11
ENDBRANCH   1  10
TORSDOF 9
ENDMDL
MODEL      936
REMARK  Name = ZINC000001615760
REMARK                            x       y       z     vdW  Elec       q    Type
REMARK                         _______ _______ _______ _____ _____    ______ ____
ROOT
ATOM      1  C   LIG    1       -2.826  -2.585   0.015  0.00  0.00    -0.050 C 
ATOM      2  C   LIG    1       -3.224  -3.417  -0.915  0.00  0.00    -0.050 C 
ENDROOT
BRANCH   1   3
ATOM      3  C   LIG    1       -1.413  -2.063   0.004  0.00  0.00    +0.040 C 
BRANCH   3   4
ATOM      4  C   LIG    1       -1.433  -0.534   0.013  0.00  0.00    +0.000 C 
BRANCH   4   6
ATOM      5  C   LIG    1       -0.019   1.526   0.010  0.00  0.00    +0.000 C 
ATOM      6  C   LIG    1        0.002  -0.004   0.002  0.00  0.00    -0.010 C 
ENDBRANCH   4   6
ENDBRANCH   3   4
ENDBRANCH   1   3
BRANCH   2   7
ATOM      7  C   LIG    1       -4.638  -3.939  -0.904  0.00  0.00    +0.040 C 
BRANCH   7   8
ATOM      8  C   LIG    1       -5.301  -3.645  -2.252  0.00  0.00    +0.000 C 
BRANCH   8   9
ATOM      9  C   LIG    1       -6.736  -4.175  -2.241  0.00  0.00    -0.010 C 
ATOM     10  C   LIG    1       -7.398  -3.881  -3.589  0.00  0.00    +0.000 C 
ENDBRANCH   8   9
ENDBRANCH   7   8
ENDBRANCH   2   7
TORSDOF 6
ENDMDL
MODEL      937
REMARK  Name = ZINC000001627243
REMARK                            x       y       z     vdW  Elec       q    Type
REMARK                         _______ _______ _______ _____ _____    ______ ____
ROOT
ATOM      1  C   LIG    1       -1.412  -0.526   0.013  0.00  0.00    -0.060 A 
ATOM      2  C   LIG    1       -2.259  -0.204   1.057  0.00  0.00    +0.020 A 
ATOM      3  C   LIG    1       -3.556  -0.682   1.067  0.00  0.00    +0.040 A 
ATOM      4  C   LIG    1       -4.006  -1.482   0.032  0.00  0.00    -0.100 A 
ATOM      5  C   LIG    1       -3.158  -1.804  -1.012  0.00  0.00    +0.040 A 
ATOM      6 BR   LIG    1       -5.780  -2.135   0.045  0.00  0.00    -0.050 Br
ATOM      7  C   LIG    1       -1.863  -1.321  -1.024  0.00  0.00    +0.020 A 
ENDROOT
BRANCH   1   9
ATOM      8  C   LIG    1       -0.019   1.526   0.010  0.00  0.00    +0.030 C 
ATOM      9  C   LIG    1        0.002  -0.004   0.002  0.00  0.00    +0.020 C 
ATOM     10  C   LIG    1        0.742  -0.511   1.242  0.00  0.00    +0.030 C 
ENDBRANCH   1   9
TORSDOF 1
ENDMDL
MODEL      938
REMARK  Name = ZINC000001640892
REMARK                            x       y       z     vdW  Elec       q    Type
REMARK                         _______ _______ _______ _____ _____    ______ ____
ROOT
ATOM      1  C   LIG    1        2.442  -4.668   3.893  0.00  0.00    -0.010 C 
ENDROOT
BRANCH   1   2
ATOM      2  C   LIG    1        2.015  -3.849   2.673  0.00  0.00    +0.010 C 
BRANCH   2   3
ATOM      3  C   LIG    1        2.294  -2.367   2.930  0.00  0.00    +0.000 C 
BRANCH   3   4
ATOM      4  C   LIG    1        1.866  -1.548   1.710  0.00  0.00    +0.000 C 
BRANCH   4   5
ATOM      5  C   LIG    1        2.145  -0.066   1.967  0.00  0.00    +0.000 C 
BRANCH   5   7
ATOM      6  C   LIG    1        1.996   2.235   1.004  0.00  0.00    +0.000 C 
ATOM      7  C   LIG    1        1.718   0.752   0.747  0.00  0.00    -0.010 C 
ENDBRANCH   5   7
ENDBRANCH   4   5
ENDBRANCH   3   4
ENDBRANCH   2   3
ENDBRANCH   1   2
BRANCH   1   8
ATOM      8  C   LIG    1        2.280  -6.158   3.589  0.00  0.00    +0.020 C 
BRANCH   8   9
ATOM      9  C   LIG    1        3.260  -6.564   2.486  0.00  0.00    +0.000 C 
BRANCH   9  10
ATOM     10  C   LIG    1        3.189  -8.077   2.273  0.00  0.00    -0.010 C 
ATOM     11  C   LIG    1        4.169  -8.483   1.170  0.00  0.00    +0.000 C 
ENDBRANCH   9  10
ENDBRANCH   8   9
ENDBRANCH   1   8
BRANCH   1  12
ATOM     12  C   LIG    1        1.567  -4.293   5.091  0.00  0.00    +0.170 C 
BRANCH  12  13
ATOM     13  O   LIG    1        2.034  -4.978   6.254  0.00  0.00    -0.570 OA
ATOM     14  H   LIG    1        1.524  -4.788   7.054  0.00  0.00    +0.380 HD
ENDBRANCH  12  13
ENDBRANCH   1  12
TORSDOF 10
ENDMDL
MODEL      939
REMARK  Name = ZINC000001651944
REMARK                            x       y       z     vdW  Elec       q    Type
REMARK                         _______ _______ _______ _____ _____    ______ ____
ROOT
ATOM      1  C   LIG    1       -1.412  -0.526   0.013  0.00  0.00    -0.070 A 
ATOM      2  C   LIG    1       -2.259  -0.204   1.056  0.00  0.00    +0.030 A 
ATOM      3  C   LIG    1       -3.556  -0.682   1.067  0.00  0.00    +0.020 A 
ATOM      4  C   LIG    1       -4.006  -1.482   0.034  0.00  0.00    +0.030 A 
ATOM      5  C   LIG    1       -3.159  -1.804  -1.011  0.00  0.00    -0.090 A 
ATOM      6 BR   LIG    1       -3.774  -2.898  -2.426  0.00  0.00    -0.050 Br
ATOM      7  C   LIG    1       -1.863  -1.321  -1.024  0.00  0.00    +0.040 A 
ENDROOT
BRANCH   1   9
ATOM      8  C   LIG    1       -0.019   1.526   0.010  0.00  0.00    +0.030 C 
ATOM      9  C   LIG    1        0.002  -0.004   0.002  0.00  0.00    +0.020 C 
ATOM     10  C   LIG    1        0.742  -0.511   1.242  0.00  0.00    +0.030 C 
ENDBRANCH   1   9
TORSDOF 1
ENDMDL
MODEL      940
REMARK  Name = ZINC000001653138
REMARK                            x       y       z     vdW  Elec       q    Type
REMARK                         _______ _______ _______ _____ _____    ______ ____
ROOT
ATOM      1  C   LIG    1       -0.728   2.285   1.252  0.00  0.00    -0.120 A 
ATOM      2  C   LIG    1       -2.094   2.491   1.233  0.00  0.00    +0.050 A 
ATOM      3  C   LIG    1       -2.741   2.937   2.371  0.00  0.00    +0.010 A 
ATOM      4  C   LIG    1       -2.022   3.176   3.527  0.00  0.00    +0.040 A 
ATOM      5  C   LIG    1       -0.655   2.968   3.545  0.00  0.00    +0.010 A 
ATOM      6  C   LIG    1       -0.009   2.518   2.409  0.00  0.00    +0.050 A 
ENDROOT
BRANCH   1   8
ATOM      7 CL   LIG    1        0.002  -0.004   0.002  0.00  0.00    -0.080 Cl
ATOM      8  C   LIG    1       -0.022   1.799   0.012  0.00  0.00    +0.190 C 
ATOM      9 CL   LIG    1       -0.894   2.396  -1.449  0.00  0.00    -0.080 Cl
ATOM     10 CL   LIG    1        1.669   2.423  -0.001  0.00  0.00    -0.080 Cl
ENDBRANCH   1   8
TORSDOF 1
ENDMDL
MODEL      941
REMARK  Name = ZINC000001655700
REMARK                            x       y       z     vdW  Elec       q    Type
REMARK                         _______ _______ _______ _____ _____    ______ ____
ROOT
ATOM      1  C   LIG    1        1.514  -2.407  -2.538  0.00  0.00    -0.020 C 
ENDROOT
BRANCH   1   2
ATOM      2  C   LIG    1        0.751  -1.891  -3.760  0.00  0.00    +0.000 C 
ATOM      3  C   LIG    1        0.838  -0.364  -3.808  0.00  0.00    +0.010 C 
ENDBRANCH   1   2
BRANCH   1   4
ATOM      4  C   LIG    1        0.813  -1.935  -1.263  0.00  0.00    +0.000 C 
BRANCH   4   5
ATOM      5  C   LIG    1        1.650  -2.330  -0.044  0.00  0.00    +0.000 C 
BRANCH   5   7
ATOM      6  C   LIG    1        1.855  -2.140   2.438  0.00  0.00    +0.000 C 
ATOM      7  C   LIG    1        1.018  -1.745   1.220  0.00  0.00    -0.010 C 
ENDBRANCH   5   7
ENDBRANCH   4   5
ENDBRANCH   1   4
BRANCH   1   8
ATOM      8  C   LIG    1        1.546  -3.936  -2.566  0.00  0.00    +0.020 C 
BRANCH   8   9
ATOM      9  C   LIG    1        2.355  -4.407  -3.776  0.00  0.00    -0.010 C 
BRANCH   9  10
ATOM     10  C   LIG    1        2.388  -5.936  -3.804  0.00  0.00    +0.200 C 
BRANCH  10  11
ATOM     11  C   LIG    1        3.299  -6.407  -4.940  0.00  0.00    -0.030 C 
ATOM     12  C   LIG    1        3.431  -7.930  -4.891  0.00  0.00    +0.010 C 
ENDBRANCH  10  11
BRANCH  10  13
ATOM     13  O   LIG    1        1.067  -6.438  -4.014  0.00  0.00    -0.560 OA
ATOM     14  H   LIG    1        0.662  -6.146  -4.843  0.00  0.00    +0.370 HD
ENDBRANCH  10  13
ENDBRANCH   9  10
ENDBRANCH   8   9
ENDBRANCH   1   8
TORSDOF 9
ENDMDL
MODEL      942
REMARK  Name = ZINC000001655698
REMARK                            x       y       z     vdW  Elec       q    Type
REMARK                         _______ _______ _______ _____ _____    ______ ____
ROOT
ATOM      1  C   LIG    1        1.514  -2.407  -2.538  0.00  0.00    -0.020 C 
ENDROOT
BRANCH   1   2
ATOM      2  C   LIG    1        0.751  -1.891  -3.760  0.00  0.00    +0.000 C 
ATOM      3  C   LIG    1        0.838  -0.364  -3.808  0.00  0.00    +0.010 C 
ENDBRANCH   1   2
BRANCH   1   4
ATOM      4  C   LIG    1        0.813  -1.935  -1.263  0.00  0.00    +0.000 C 
BRANCH   4   5
ATOM      5  C   LIG    1        1.650  -2.330  -0.044  0.00  0.00    +0.000 C 
BRANCH   5   7
ATOM      6  C   LIG    1        1.855  -2.140   2.438  0.00  0.00    +0.000 C 
ATOM      7  C   LIG    1        1.018  -1.745   1.220  0.00  0.00    -0.010 C 
ENDBRANCH   5   7
ENDBRANCH   4   5
ENDBRANCH   1   4
BRANCH   1   8
ATOM      8  C   LIG    1        1.546  -3.936  -2.566  0.00  0.00    +0.020 C 
BRANCH   8   9
ATOM      9  C   LIG    1        2.355  -4.407  -3.776  0.00  0.00    -0.020 C 
BRANCH   9  10
ATOM     10  C   LIG    1        2.388  -5.936  -3.804  0.00  0.00    +0.200 C 
BRANCH  10  11
ATOM     11  C   LIG    1        3.089  -6.409  -5.079  0.00  0.00    -0.030 C 
ATOM     12  C   LIG    1        3.012  -7.934  -5.169  0.00  0.00    +0.010 C 
ENDBRANCH  10  11
BRANCH  10  13
ATOM     13  O   LIG    1        3.100  -6.418  -2.663  0.00  0.00    -0.560 OA
ATOM     14  H   LIG    1        4.017  -6.114  -2.614  0.00  0.00    +0.370 HD
ENDBRANCH  10  13
ENDBRANCH   9  10
ENDBRANCH   8   9
ENDBRANCH   1   8
TORSDOF 9
ENDMDL
MODEL      943
REMARK  Name = ZINC000001655703
REMARK                            x       y       z     vdW  Elec       q    Type
REMARK                         _______ _______ _______ _____ _____    ______ ____
ROOT
ATOM      1  C   LIG    1        2.052  -0.080  -1.392  0.00  0.00    -0.070 A 
ATOM      2  C   LIG    1        2.648   0.544  -0.312  0.00  0.00    +0.020 A 
ATOM      3  C   LIG    1        3.974   0.928  -0.381  0.00  0.00    -0.010 A 
ATOM      4  C   LIG    1        4.705   0.688  -1.535  0.00  0.00    +0.100 A 
ATOM      5  C   LIG    1        4.104   0.061  -2.617  0.00  0.00    -0.110 A 
ATOM      6  C   LIG    1        4.896  -0.202  -3.872  0.00  0.00    +0.100 C 
ATOM      7  C   LIG    1        2.780  -0.326  -2.541  0.00  0.00    +0.020 A 
ENDROOT
BRANCH   1   8
ATOM      8  C   LIG    1        0.606  -0.499  -1.314  0.00  0.00    -0.020 C 
ATOM      9  C   LIG    1        0.517  -2.026  -1.317  0.00  0.00    +0.040 C 
BRANCH   8  11
ATOM     10  C   LIG    1       -0.064   1.574  -0.089  0.00  0.00    +0.010 C 
ATOM     11  C   LIG    1       -0.014   0.046  -0.025  0.00  0.00    +0.020 C 
ENDBRANCH   8  11
BRANCH   8  12
ATOM     12  C   LIG    1       -0.152   0.059  -2.520  0.00  0.00    +0.020 C 
ATOM     13  C   LIG    1       -1.620  -0.366  -2.441  0.00  0.00    +0.010 C 
ENDBRANCH   8  12
ENDBRANCH   1   8
BRANCH   4  14
ATOM     14  O   LIG    1        6.009   1.065  -1.605  0.00  0.00    -0.500 OA
ATOM     15  H   LIG    1        6.631   0.387  -1.306  0.00  0.00    +0.390 HD
ENDBRANCH   4  14
TORSDOF 4
ENDMDL
MODEL      944
REMARK  Name = ZINC000001655712
REMARK                            x       y       z     vdW  Elec       q    Type
REMARK                         _______ _______ _______ _____ _____    ______ ____
ROOT
ATOM      1  C   LIG    1       -1.412  -0.526   0.013  0.00  0.00    -0.070 A 
ATOM      2  C   LIG    1       -2.257  -0.195   1.070  0.00  0.00    +0.010 A 
ATOM      3  C   LIG    1       -3.540  -0.650   1.110  0.00  0.00    +0.030 A 
ATOM      4  C   LIG    1       -4.021  -1.464   0.072  0.00  0.00    -0.060 A 
ATOM      5  C   LIG    1       -5.340  -1.952   0.078  0.00  0.00    +0.020 A 
ATOM      6  C   LIG    1       -5.771  -2.739  -0.945  0.00  0.00    +0.000 A 
ATOM      7  C   LIG    1       -4.926  -3.069  -2.003  0.00  0.00    +0.000 A 
ATOM      8  C   LIG    1       -3.643  -2.615  -2.043  0.00  0.00    +0.020 A 
ATOM      9  C   LIG    1       -3.161  -1.800  -1.004  0.00  0.00    -0.050 A 
ATOM     10  C   LIG    1       -1.845  -1.308  -1.013  0.00  0.00    +0.020 A 
ENDROOT
BRANCH   1  12
ATOM     11  C   LIG    1       -0.019   1.526   0.010  0.00  0.00    +0.030 C 
ATOM     12  C   LIG    1        0.002  -0.004   0.002  0.00  0.00    +0.020 C 
ATOM     13  C   LIG    1        0.742  -0.511   1.242  0.00  0.00    +0.030 C 
ENDBRANCH   1  12
TORSDOF 1
ENDMDL
MODEL      945
REMARK  Name = ZINC000104836649
REMARK                            x       y       z     vdW  Elec       q    Type
REMARK                         _______ _______ _______ _____ _____    ______ ____
ROOT
ATOM      1  C   LIG    1       -0.019   1.526   0.010  0.00  0.00    +0.030 C 
ATOM      2  C   LIG    1        0.002  -0.004   0.002  0.00  0.00    -0.030 C 
ATOM      3  C   LIG    1        0.711  -0.496  -1.261  0.00  0.00    +0.030 C 
ATOM      4  C   LIG    1        0.650  -2.026  -1.316  0.00  0.00    +0.080 C 
ATOM      5  C   LIG    1        1.220  -2.576  -0.027  0.00  0.00    -0.070 C 
ATOM      6  C   LIG    1        0.683  -2.040   1.281  0.00  0.00    +0.080 C 
ATOM      7  C   LIG    1        2.158  -3.495  -0.044  0.00  0.00    -0.060 C 
ATOM      8 CL   LIG    1        2.797  -4.111   1.448  0.00  0.00    -0.040 Cl
ATOM      9 CL   LIG    1        2.759  -4.095  -1.558  0.00  0.00    -0.040 Cl
ATOM     10  C   LIG    1        0.742  -0.509   1.242  0.00  0.00    +0.030 C 
ENDROOT
TORSDOF 0
ENDMDL
MODEL      946
REMARK  Name = ZINC000261493767
REMARK                            x       y       z     vdW  Elec       q    Type
REMARK                         _______ _______ _______ _____ _____    ______ ____
ROOT
ATOM      1  C   LIG    1       -0.018   1.503   0.010  0.00  0.00    +0.100 C 
ATOM      2  C   LIG    1        0.002  -0.004   0.002  0.00  0.00    -0.030 A 
ATOM      3  C   LIG    1        0.006  -0.688  -1.199  0.00  0.00    -0.010 A 
ATOM      4  C   LIG    1        0.025  -2.072  -1.210  0.00  0.00    +0.010 A 
ATOM      5  C   LIG    1        0.041  -2.773  -0.019  0.00  0.00    -0.070 A 
ATOM      6  C   LIG    1        0.037  -2.088   1.188  0.00  0.00    +0.150 A 
ATOM      7 CL   LIG    1        0.029  -2.928  -2.720  0.00  0.00    -0.060 Cl
ATOM      8  C   LIG    1        0.023  -0.701   1.195  0.00  0.00    -0.010 A 
ENDROOT
BRANCH   6   9
ATOM      9  O   LIG    1        0.053  -2.774   2.360  0.00  0.00    -0.310 OA
BRANCH   9  10
ATOM     10  C   LIG    1        0.072  -4.201   2.276  0.00  0.00    +0.180 C 
BRANCH  10  11
ATOM     11  C   LIG    1        0.088  -4.794   3.687  0.00  0.00    -0.010 C 
ATOM     12  C   LIG    1        0.234  -6.315   3.598  0.00  0.00    +0.040 C 
ATOM     13  C   LIG    1       -1.221  -4.449   4.400  0.00  0.00    +0.020 C 
ENDBRANCH  10  11
ENDBRANCH   9  10
ENDBRANCH   6   9
TORSDOF 3
ENDMDL
MODEL      947
REMARK  Name = ZINC000261493852
REMARK                            x       y       z     vdW  Elec       q    Type
REMARK                         _______ _______ _______ _____ _____    ______ ____
ROOT
ATOM      1  C   LIG    1        1.563  -3.861   2.537  0.00  0.00    +0.150 A 
ATOM      2  C   LIG    1        2.216  -4.389   3.640  0.00  0.00    -0.010 A 
ATOM      3  C   LIG    1        2.326  -5.759   3.787  0.00  0.00    -0.030 A 
ATOM      4  C   LIG    1        1.785  -6.603   2.835  0.00  0.00    -0.010 A 
ATOM      5  C   LIG    1        1.133  -6.079   1.733  0.00  0.00    +0.010 A 
ATOM      6 CL   LIG    1        0.455  -7.141   0.539  0.00  0.00    -0.060 Cl
ATOM      7  C   LIG    1        3.035  -6.333   4.986  0.00  0.00    +0.100 C 
ATOM      8  C   LIG    1        1.015  -4.709   1.585  0.00  0.00    -0.070 A 
ENDROOT
BRANCH   1   9
ATOM      9  O   LIG    1        1.454  -2.514   2.391  0.00  0.00    -0.310 OA
BRANCH   9  10
ATOM     10  C   LIG    1        0.763  -2.041   1.233  0.00  0.00    +0.180 C 
BRANCH  10  11
ATOM     11  C   LIG    1        0.742  -0.511   1.242  0.00  0.00    +0.040 C 
BRANCH  11  13
ATOM     12  C   LIG    1       -0.019   1.526   0.010  0.00  0.00    +0.030 C 
ATOM     13  C   LIG    1        0.002  -0.004   0.002  0.00  0.00    +0.020 C 
ENDBRANCH  11  13
ENDBRANCH  10  11
ENDBRANCH   9  10
ENDBRANCH   1   9
TORSDOF 4
ENDMDL
MODEL      948
REMARK  Name = ZINC000001672037
REMARK                            x       y       z     vdW  Elec       q    Type
REMARK                         _______ _______ _______ _____ _____    ______ ____
ROOT
ATOM      1  C   LIG    1       -0.017   1.378   0.010  0.00  0.00    -0.010 A 
ATOM      2  C   LIG    1        1.171   2.086   0.002  0.00  0.00    +0.000 A 
ATOM      3  C   LIG    1        2.377   1.411  -0.013  0.00  0.00    +0.000 A 
ATOM      4  C   LIG    1        2.396   0.029  -0.020  0.00  0.00    -0.080 A 
ATOM      5  C   LIG    1        1.208  -0.679  -0.011  0.00  0.00    +0.000 A 
ATOM      6  C   LIG    1        0.002  -0.004   0.002  0.00  0.00    +0.000 A 
ENDROOT
BRANCH   4   7
ATOM      7  C   LIG    1        3.711  -0.707  -0.037  0.00  0.00    +0.030 C 
ATOM      8  C   LIG    1        3.817  -1.592   1.207  0.00  0.00    +0.010 C 
ATOM      9  C   LIG    1        5.152  -2.339   1.190  0.00  0.00    +0.000 C 
ATOM     10  C   LIG    1        5.232  -3.211  -0.065  0.00  0.00    +0.000 C 
ATOM     11  C   LIG    1        5.127  -2.326  -1.309  0.00  0.00    +0.000 C 
ATOM     12  C   LIG    1        3.792  -1.579  -1.292  0.00  0.00    +0.010 C 
ENDBRANCH   4   7
TORSDOF 1
ENDMDL
MODEL      949
REMARK  Name = ZINC000001672878
REMARK                            x       y       z     vdW  Elec       q    Type
REMARK                         _______ _______ _______ _____ _____    ______ ____
ROOT
ATOM      1  C   LIG    1       -0.018   1.503   0.010  0.00  0.00    +0.090 C 
ATOM      2  C   LIG    1        0.002  -0.004   0.002  0.00  0.00    -0.090 A 
ATOM      3  C   LIG    1        0.006  -0.689  -1.199  0.00  0.00    -0.090 A 
ATOM      4  C   LIG    1        0.025  -2.071  -1.206  0.00  0.00    -0.090 A 
ATOM      5  C   LIG    1        0.041  -2.768  -0.013  0.00  0.00    -0.090 A 
ATOM      6  C   LIG    1        0.037  -2.084   1.188  0.00  0.00    -0.090 A 
ATOM      7  C   LIG    1        0.054  -2.844   2.489  0.00  0.00    +0.090 C 
ATOM      8  C   LIG    1        0.062  -4.275  -0.021  0.00  0.00    +0.090 C 
ATOM      9  C   LIG    1        0.029  -2.817  -2.516  0.00  0.00    +0.090 C 
ATOM     10  C   LIG    1       -0.011   0.072  -2.500  0.00  0.00    +0.090 C 
ATOM     11  C   LIG    1        0.023  -0.702   1.195  0.00  0.00    -0.090 A 
ATOM     12  C   LIG    1        0.019   0.045   2.505  0.00  0.00    +0.090 C 
ENDROOT
TORSDOF 0
ENDMDL
MODEL      950
REMARK  Name = ZINC000001674255
REMARK                            x       y       z     vdW  Elec       q    Type
REMARK                         _______ _______ _______ _____ _____    ______ ____
ROOT
ATOM      1  C   LIG    1        0.707  -0.490  -1.238  0.00  0.00    -0.080 A 
ATOM      2  C   LIG    1       -0.012  -0.718  -2.397  0.00  0.00    +0.000 A 
ATOM      3  C   LIG    1        0.629  -1.164  -3.539  0.00  0.00    +0.010 A 
ATOM      4  C   LIG    1        1.991  -1.384  -3.527  0.00  0.00    +0.000 A 
ATOM      5  C   LIG    1        2.721  -1.156  -2.362  0.00  0.00    -0.040 A 
ATOM      6  C   LIG    1        2.071  -0.701  -1.216  0.00  0.00    +0.010 A 
ENDROOT
BRANCH   5   7
ATOM      7  C   LIG    1        4.186  -1.390  -2.343  0.00  0.00    -0.050 A 
ATOM      8  C   LIG    1        4.915  -1.167  -1.177  0.00  0.00    +0.010 A 
ATOM      9  C   LIG    1        6.278  -1.387  -1.165  0.00  0.00    +0.000 A 
ATOM     10  C   LIG    1        6.920  -1.828  -2.308  0.00  0.00    +0.000 A 
ATOM     11  C   LIG    1        6.201  -2.051  -3.469  0.00  0.00    +0.000 A 
ATOM     12  C   LIG    1        4.837  -1.840  -3.490  0.00  0.00    +0.020 A 
ENDBRANCH   5   7
BRANCH   1  14
ATOM     13  C   LIG    1       -0.019   1.526   0.010  0.00  0.00    +0.030 C 
ATOM     14  C   LIG    1        0.002  -0.004   0.002  0.00  0.00    +0.050 C 
ENDBRANCH   1  14
TORSDOF 2
ENDMDL
MODEL      951
REMARK  Name = ZINC000001674682
REMARK                            x       y       z     vdW  Elec       q    Type
REMARK                         _______ _______ _______ _____ _____    ______ ____
ROOT
ATOM      1  C   LIG    1       -0.018   1.503   0.010  0.00  0.00    +0.090 C 
ATOM      2  C   LIG    1        0.002  -0.004   0.002  0.00  0.00    -0.090 A 
ATOM      3  C   LIG    1        0.006  -0.686  -1.202  0.00  0.00    +0.000 A 
ATOM      4  C   LIG    1        0.025  -2.066  -1.216  0.00  0.00    +0.010 A 
ATOM      5  C   LIG    1        0.041  -2.773  -0.013  0.00  0.00    -0.060 A 
ATOM      6  C   LIG    1        0.037  -2.079   1.197  0.00  0.00    +0.010 A 
ATOM      7  C   LIG    1        0.023  -0.699   1.198  0.00  0.00    +0.000 A 
ENDROOT
BRANCH   5   8
ATOM      8  C   LIG    1        0.062  -4.251  -0.021  0.00  0.00    -0.090 C 
ATOM      9  C   LIG    1        1.119  -4.850  -0.514  0.00  0.00    -0.040 C 
ATOM     10  C   LIG    1        1.273  -6.341  -0.594  0.00  0.00    +0.060 C 
ATOM     11  C   LIG    1        0.267  -7.025   0.334  0.00  0.00    +0.010 C 
ATOM     12  C   LIG    1       -1.122  -6.434   0.067  0.00  0.00    +0.020 C 
ATOM     13  C   LIG    1       -1.126  -4.977   0.540  0.00  0.00    +0.060 C 
ENDBRANCH   5   8
TORSDOF 1
ENDMDL
MODEL      952
REMARK  Name = ZINC000001674256
REMARK                            x       y       z     vdW  Elec       q    Type
REMARK                         _______ _______ _______ _____ _____    ______ ____
ROOT
ATOM      1  C   LIG    1       -0.123  -2.805   2.561  0.00  0.00    +0.090 C 
ATOM      2  C   LIG    1       -0.041  -2.089   1.237  0.00  0.00    -0.080 A 
ATOM      3  C   LIG    1        0.064  -2.814   0.065  0.00  0.00    +0.000 A 
ATOM      4  C   LIG    1        0.138  -2.157  -1.149  0.00  0.00    +0.000 A 
ATOM      5  C   LIG    1        0.107  -0.776  -1.191  0.00  0.00    +0.000 A 
ATOM      6  C   LIG    1        0.002  -0.051  -0.019  0.00  0.00    +0.010 A 
ATOM      7  C   LIG    1       -0.077  -0.708   1.195  0.00  0.00    -0.080 A 
ENDROOT
BRANCH   7   8
ATOM      8  C   LIG    1       -0.193   0.082   2.473  0.00  0.00    +0.110 C 
BRANCH   8   9
ATOM      9  C   LIG    1       -1.645   0.217   2.850  0.00  0.00    -0.070 A 
ATOM     10  C   LIG    1       -2.404   1.245   2.322  0.00  0.00    +0.010 A 
ATOM     11  C   LIG    1       -3.737   1.369   2.669  0.00  0.00    +0.000 A 
ATOM     12  C   LIG    1       -4.311   0.465   3.543  0.00  0.00    +0.000 A 
ATOM     13  C   LIG    1       -3.552  -0.564   4.071  0.00  0.00    +0.000 A 
ATOM     14  C   LIG    1       -2.220  -0.690   3.721  0.00  0.00    +0.000 A 
ENDBRANCH   8   9
ENDBRANCH   7   8
TORSDOF 2
ENDMDL
MODEL      953
REMARK  Name = ZINC000001680848
REMARK                            x       y       z     vdW  Elec       q    Type
REMARK                         _______ _______ _______ _____ _____    ______ ____
ROOT
ATOM      1  C   LIG    1       -0.018   1.503   0.010  0.00  0.00    +0.090 C 
ATOM      2  C   LIG    1        0.002  -0.004   0.002  0.00  0.00    -0.070 A 
ATOM      3  C   LIG    1        0.006  -0.689  -1.196  0.00  0.00    +0.000 A 
ATOM      4  C   LIG    1        0.025  -2.072  -1.205  0.00  0.00    +0.010 A 
ATOM      5  C   LIG    1        0.040  -2.776  -0.015  0.00  0.00    +0.000 A 
ATOM      6  C   LIG    1        0.037  -2.102   1.189  0.00  0.00    +0.020 A 
ATOM      7  C   LIG    1        0.023  -0.709   1.204  0.00  0.00    -0.050 A 
ENDROOT
BRANCH   7   8
ATOM      8  C   LIG    1        0.020   0.022   2.496  0.00  0.00    -0.050 A 
ATOM      9  C   LIG    1        0.930   1.054   2.718  0.00  0.00    +0.010 A 
ATOM     10  C   LIG    1        0.922   1.730   3.921  0.00  0.00    +0.000 A 
ATOM     11  C   LIG    1        0.013   1.386   4.905  0.00  0.00    +0.000 A 
ATOM     12  C   LIG    1       -0.892   0.363   4.690  0.00  0.00    +0.000 A 
ATOM     13  C   LIG    1       -0.897  -0.317   3.488  0.00  0.00    +0.010 A 
ENDBRANCH   7   8
TORSDOF 1
ENDMDL
MODEL      954
REMARK  Name = ZINC000001689942
REMARK                            x       y       z     vdW  Elec       q    Type
REMARK                         _______ _______ _______ _____ _____    ______ ____
ROOT
ATOM      1  C   LIG    1       -1.412  -0.526   0.013  0.00  0.00    -0.080 A 
ATOM      2  C   LIG    1       -2.051  -0.766   1.214  0.00  0.00    -0.010 A 
ATOM      3  C   LIG    1       -3.348  -1.244   1.224  0.00  0.00    -0.080 A 
ATOM      4  C   LIG    1       -4.006  -1.482   0.032  0.00  0.00    -0.010 A 
ATOM      5  C   LIG    1       -3.367  -1.241  -1.170  0.00  0.00    -0.060 A 
ATOM      6  C   LIG    1       -4.044  -1.507   2.535  0.00  0.00    +0.090 C 
ATOM      7  C   LIG    1       -2.072  -0.758  -1.180  0.00  0.00    +0.000 A 
ENDROOT
BRANCH   5   8
ATOM      8  C   LIG    1       -4.084  -1.500  -2.470  0.00  0.00    -0.030 C 
ATOM      9  C   LIG    1       -3.312  -2.543  -3.279  0.00  0.00    +0.040 C 
ATOM     10  C   LIG    1       -4.176  -0.199  -3.269  0.00  0.00    +0.040 C 
ATOM     11  C   LIG    1       -5.493  -2.021  -2.179  0.00  0.00    +0.040 C 
ENDBRANCH   5   8
BRANCH   1  13
ATOM     12  C   LIG    1       -0.019   1.526   0.010  0.00  0.00    +0.030 C 
ATOM     13  C   LIG    1        0.002  -0.004   0.002  0.00  0.00    +0.050 C 
ENDBRANCH   1  13
TORSDOF 2
ENDMDL
MODEL      955
REMARK  Name = ZINC000001689978
REMARK                            x       y       z     vdW  Elec       q    Type
REMARK                         _______ _______ _______ _____ _____    ______ ____
ROOT
ATOM      1  C   LIG    1        0.731  -0.503   1.223  0.00  0.00    -0.080 A 
ATOM      2  C   LIG    1        2.098  -0.709   1.173  0.00  0.00    +0.000 A 
ATOM      3  C   LIG    1        2.771  -1.166   2.288  0.00  0.00    +0.020 A 
ATOM      4  C   LIG    1        2.070  -1.420   3.466  0.00  0.00    -0.050 A 
ATOM      5  C   LIG    1        0.693  -1.212   3.510  0.00  0.00    +0.020 A 
ATOM      6  C   LIG    1        0.031  -0.749   2.391  0.00  0.00    +0.000 A 
ENDROOT
BRANCH   4   7
ATOM      7  C   LIG    1        2.788  -1.911   4.668  0.00  0.00    -0.050 A 
ATOM      8  C   LIG    1        4.166  -2.114   4.626  0.00  0.00    +0.010 A 
ATOM      9  C   LIG    1        4.828  -2.571   5.747  0.00  0.00    +0.000 A 
ATOM     10  C   LIG    1        4.127  -2.828   6.911  0.00  0.00    +0.000 A 
ATOM     11  C   LIG    1        2.759  -2.628   6.959  0.00  0.00    +0.000 A 
ATOM     12  C   LIG    1        2.087  -2.166   5.845  0.00  0.00    +0.010 A 
ENDBRANCH   4   7
BRANCH   1  14
ATOM     13  C   LIG    1       -0.019   1.526   0.010  0.00  0.00    +0.030 C 
ATOM     14  C   LIG    1        0.002  -0.004   0.002  0.00  0.00    +0.050 C 
ENDBRANCH   1  14
TORSDOF 2
ENDMDL
MODEL      956
REMARK  Name = ZINC000001690312
REMARK                            x       y       z     vdW  Elec       q    Type
REMARK                         _______ _______ _______ _____ _____    ______ ____
ROOT
ATOM      1  C   LIG    1       -0.816  -2.260   1.822  0.00  0.00    +0.020 C 
ENDROOT
BRANCH   1   2
ATOM      2  C   LIG    1       -0.867  -3.733   2.140  0.00  0.00    +0.350 C 
ATOM      3  O   LIG    1       -1.383  -4.500   1.363  0.00  0.00    -0.450 OA
BRANCH   2   4
ATOM      4  C   LIG    1       -0.275  -4.247   3.426  0.00  0.00    +0.030 C 
BRANCH   4   5
ATOM      5  C   LIG    1       -0.458  -5.764   3.502  0.00  0.00    -0.020 C 
ATOM      6  C   LIG    1       -1.950  -6.094   3.583  0.00  0.00    +0.020 C 
ATOM      7  C   LIG    1        0.251  -6.302   4.746  0.00  0.00    +0.020 C 
ENDBRANCH   4   5
ENDBRANCH   2   4
ENDBRANCH   1   2
BRANCH   1   8
ATOM      8  C   LIG    1       -1.482  -2.007   0.468  0.00  0.00    +0.030 C 
BRANCH   8   9
ATOM      9  C   LIG    1       -1.430  -0.513   0.145  0.00  0.00    -0.020 C 
BRANCH   9  11
ATOM     10  C   LIG    1        0.089   1.438  -0.217  0.00  0.00    +0.010 C 
ATOM     11  C   LIG    1        0.027  -0.080  -0.033  0.00  0.00    +0.000 C 
ENDBRANCH   9  11
BRANCH   9  12
ATOM     12  C   LIG    1       -2.204  -0.242  -1.147  0.00  0.00    +0.000 C 
ATOM     13  C   LIG    1       -3.688  -0.543  -0.925  0.00  0.00    +0.000 C 
ENDBRANCH   9  12
ENDBRANCH   8   9
ENDBRANCH   1   8
TORSDOF 7
ENDMDL
MODEL      957
REMARK  Name = ZINC000001697122
REMARK                            x       y       z     vdW  Elec       q    Type
REMARK                         _______ _______ _______ _____ _____    ______ ____
ROOT
ATOM      1  O   LIG    1        0.020  -0.034   2.381  0.00  0.00    -0.310 OA
ENDROOT
BRANCH   1   8
ATOM      2  C   LIG    1       -0.018   1.503   0.010  0.00  0.00    +0.100 C 
ATOM      3  C   LIG    1        0.002  -0.004   0.002  0.00  0.00    -0.120 A 
ATOM      4  C   LIG    1        0.006  -0.689  -1.198  0.00  0.00    +0.050 A 
ATOM      5  C   LIG    1        0.024  -2.071  -1.206  0.00  0.00    -0.030 A 
ATOM      6  C   LIG    1        0.039  -2.772  -0.014  0.00  0.00    +0.030 A 
ATOM      7  C   LIG    1        0.036  -2.092   1.188  0.00  0.00    -0.080 A 
ATOM      8  C   LIG    1        0.023  -0.705   1.199  0.00  0.00    +0.130 A 
ENDBRANCH   1   8
BRANCH   1   9
ATOM      9  C   LIG    1        0.030  -0.820   3.574  0.00  0.00    +0.240 C 
BRANCH   9  10
ATOM     10  C   LIG    1        0.025   0.090   4.776  0.00  0.00    -0.100 A 
ATOM     11  C   LIG    1        1.220   0.523   5.320  0.00  0.00    +0.020 A 
ATOM     12  C   LIG    1        1.215   1.357   6.422  0.00  0.00    +0.010 A 
ATOM     13  C   LIG    1        0.015   1.759   6.979  0.00  0.00    +0.020 A 
ATOM     14  C   LIG    1       -1.179   1.327   6.434  0.00  0.00    +0.010 A 
ATOM     15  C   LIG    1       -1.174   0.496   5.330  0.00  0.00    +0.020 A 
ENDBRANCH   9  10
ENDBRANCH   1   9
TORSDOF 3
ENDMDL
MODEL      958
REMARK  Name = ZINC000001702378
REMARK                            x       y       z     vdW  Elec       q    Type
REMARK                         _______ _______ _______ _____ _____    ______ ____
ROOT
ATOM      1  C   LIG    1        1.455  -2.521  -2.524  0.00  0.00    +0.010 C 
ENDROOT
BRANCH   1   2
ATOM      2  C   LIG    1        1.476  -4.051  -2.532  0.00  0.00    -0.020 C 
ATOM      3  C   LIG    1        0.053  -4.611  -2.779  0.00  0.00    +0.010 C 
ATOM      4  C   LIG    1        0.336  -6.022  -3.350  0.00  0.00    -0.010 C 
ATOM      5  C   LIG    1        1.576  -5.827  -4.247  0.00  0.00    -0.010 C 
ATOM      6  C   LIG    1        2.301  -4.573  -3.727  0.00  0.00    +0.000 C 
ENDBRANCH   1   2
BRANCH   1   7
ATOM      7  C   LIG    1        0.739  -2.027  -1.265  0.00  0.00    +0.000 C 
BRANCH   7   8
ATOM      8  C   LIG    1        0.718  -0.497  -1.257  0.00  0.00    +0.000 C 
BRANCH   8  10
ATOM      9  C   LIG    1       -0.019   1.526   0.010  0.00  0.00    +0.000 C 
ATOM     10  C   LIG    1        0.002  -0.004   0.002  0.00  0.00    -0.010 C 
ENDBRANCH   8  10
ENDBRANCH   7   8
ENDBRANCH   1   7
TORSDOF 4
ENDMDL
MODEL      959
REMARK  Name = ZINC000001712653
REMARK                            x       y       z     vdW  Elec       q    Type
REMARK                         _______ _______ _______ _____ _____    ______ ____
ROOT
ATOM      1  C   LIG    1       -0.018   1.503   0.010  0.00  0.00    +0.090 C 
ATOM      2  C   LIG    1        0.002  -0.004   0.002  0.00  0.00    -0.080 A 
ATOM      3  C   LIG    1        0.006  -0.689  -1.199  0.00  0.00    +0.000 A 
ATOM      4  C   LIG    1        0.025  -2.071  -1.206  0.00  0.00    -0.060 A 
ATOM      5  C   LIG    1        0.041  -2.768  -0.013  0.00  0.00    +0.000 A 
ATOM      6  C   LIG    1        0.037  -2.084   1.188  0.00  0.00    -0.080 A 
ATOM      7  C   LIG    1        0.054  -2.844   2.489  0.00  0.00    +0.090 C 
ATOM      8  C   LIG    1        0.023  -0.702   1.195  0.00  0.00    -0.010 A 
ENDROOT
BRANCH   4   9
ATOM      9  C   LIG    1        0.028  -2.817  -2.516  0.00  0.00    -0.030 C 
ATOM     10  C   LIG    1       -1.230  -2.460  -3.310  0.00  0.00    +0.040 C 
ATOM     11  C   LIG    1        0.050  -4.323  -2.244  0.00  0.00    +0.040 C 
ATOM     12  C   LIG    1        1.268  -2.426  -3.322  0.00  0.00    +0.040 C 
ENDBRANCH   4   9
TORSDOF 1
ENDMDL
MODEL      960
REMARK  Name = ZINC000001720653
REMARK                            x       y       z     vdW  Elec       q    Type
REMARK                         _______ _______ _______ _____ _____    ______ ____
ROOT
ATOM      1  C   LIG    1        0.020   0.022   2.495  0.00  0.00    -0.100 A 
ATOM      2  C   LIG    1        0.931   1.053   2.716  0.00  0.00    +0.060 A 
ATOM      3  C   LIG    1        0.926   1.731   3.917  0.00  0.00    -0.080 A 
ATOM      4  C   LIG    1        0.013   1.387   4.907  0.00  0.00    +0.220 A 
ATOM      5  C   LIG    1       -0.898   0.359   4.688  0.00  0.00    -0.170 A 
ATOM      6  C   LIG    1       -1.887  -0.011   5.763  0.00  0.00    +0.090 C 
ATOM      7  C   LIG    1       -0.899  -0.318   3.487  0.00  0.00    +0.060 A 
ENDROOT
BRANCH   1  14
ATOM      8  C   LIG    1       -0.018   1.503   0.010  0.00  0.00    +0.080 C 
ATOM      9  C   LIG    1        0.002  -0.004   0.002  0.00  0.00    -0.080 A 
ATOM     10  C   LIG    1        0.006  -0.689  -1.196  0.00  0.00    +0.000 A 
ATOM     11  C   LIG    1        0.024  -2.072  -1.205  0.00  0.00    +0.000 A 
ATOM     12  C   LIG    1        0.039  -2.776  -0.015  0.00  0.00    +0.000 A 
ATOM     13  C   LIG    1        0.036  -2.102   1.189  0.00  0.00    +0.010 A 
ATOM     14  C   LIG    1        0.023  -0.709   1.204  0.00  0.00    -0.040 A 
ENDBRANCH   1  14
BRANCH   4  15
ATOM     15  N   LIG    1        0.009   2.075   6.121  0.00  0.00    -0.880 N 
ATOM     16  H   LIG    1       -0.628   1.835   6.812  0.00  0.00    +0.400 HD
ATOM     17  H   LIG    1        0.644   2.792   6.274  0.00  0.00    +0.400 HD
ENDBRANCH   4  15
TORSDOF 2
ENDMDL
MODEL      961
REMARK  Name = ZINC000001724367
REMARK                            x       y       z     vdW  Elec       q    Type
REMARK                         _______ _______ _______ _____ _____    ______ ____
ROOT
ATOM      1  C   LIG    1       -0.018   1.503   0.010  0.00  0.00    +0.090 C 
ATOM      2  C   LIG    1        0.002  -0.004   0.002  0.00  0.00    -0.070 A 
ATOM      3  C   LIG    1        0.006  -0.689  -1.200  0.00  0.00    +0.020 A 
ATOM      4  C   LIG    1        0.025  -2.072  -1.210  0.00  0.00    +0.010 A 
ATOM      5  C   LIG    1        0.040  -2.776  -0.024  0.00  0.00    +0.020 A 
ATOM      6  C   LIG    1        0.037  -2.091   1.193  0.00  0.00    -0.060 A 
ATOM      7  C   LIG    1        0.051  -2.586   2.592  0.00  0.00    -0.060 A 
ATOM      8  C   LIG    1        0.061  -3.882   3.109  0.00  0.00    +0.020 A 
ATOM      9  C   LIG    1        0.067  -4.079   4.474  0.00  0.00    +0.010 A 
ATOM     10  C   LIG    1        0.059  -2.996   5.335  0.00  0.00    +0.020 A 
ATOM     11  C   LIG    1        0.044  -1.708   4.829  0.00  0.00    +0.030 A 
ATOM     12  C   LIG    1        0.038  -1.502   3.466  0.00  0.00    -0.090 A 
ATOM     13  C   LIG    1        0.023  -0.245   2.631  0.00  0.00    +0.160 C 
ATOM     14  C   LIG    1        0.023  -0.699   1.193  0.00  0.00    -0.090 A 
ENDROOT
TORSDOF 0
ENDMDL
MODEL      962
REMARK  Name = ZINC000001733812
REMARK                            x       y       z     vdW  Elec       q    Type
REMARK                         _______ _______ _______ _____ _____    ______ ____
ROOT
ATOM      1  C   LIG    1       -0.018   1.503   0.010  0.00  0.00    +0.120 C 
ATOM      2  C   LIG    1        0.002  -0.004   0.002  0.00  0.00    -0.060 A 
ATOM      3  C   LIG    1        0.006  -0.688  -1.199  0.00  0.00    +0.060 A 
ATOM      4  C   LIG    1        0.025  -2.071  -1.207  0.00  0.00    -0.020 A 
ATOM      5  C   LIG    1        0.040  -2.771  -0.012  0.00  0.00    -0.030 A 
ATOM      6  C   LIG    1        0.037  -2.085   1.190  0.00  0.00    +0.060 A 
ATOM      7 CL   LIG    1        0.064  -4.506  -0.021  0.00  0.00    -0.030 Cl
ATOM      8 CL   LIG    1        0.029  -2.931  -2.715  0.00  0.00    -0.040 Cl
ATOM      9  C   LIG    1        0.023  -0.702   1.197  0.00  0.00    -0.030 A 
ATOM     10 CL   LIG    1        0.019   0.158   2.705  0.00  0.00    -0.040 Cl
ENDROOT
TORSDOF 0
ENDMDL
MODEL      963
REMARK  Name = ZINC000001736679
REMARK                            x       y       z     vdW  Elec       q    Type
REMARK                         _______ _______ _______ _____ _____    ______ ____
ROOT
ATOM      1  C   LIG    1       -1.412  -0.526   0.013  0.00  0.00    -0.080 A 
ATOM      2  C   LIG    1       -2.259  -0.204   1.056  0.00  0.00    +0.010 A 
ATOM      3  C   LIG    1       -3.556  -0.683   1.066  0.00  0.00    +0.000 A 
ATOM      4  C   LIG    1       -4.006  -1.482   0.032  0.00  0.00    -0.080 A 
ATOM      5  C   LIG    1       -3.159  -1.802  -1.012  0.00  0.00    +0.010 A 
ATOM      6  C   LIG    1       -1.863  -1.321  -1.024  0.00  0.00    +0.000 A 
ENDROOT
BRANCH   1   8
ATOM      7  C   LIG    1       -0.019   1.526   0.010  0.00  0.00    +0.040 C 
ATOM      8  C   LIG    1        0.002  -0.004   0.002  0.00  0.00    +0.020 C 
ATOM      9  C   LIG    1        0.742  -0.511   1.242  0.00  0.00    +0.040 C 
ENDBRANCH   1   8
BRANCH   4  10
ATOM     10  C   LIG    1       -5.419  -2.004   0.043  0.00  0.00    +0.020 C 
ATOM     11  C   LIG    1       -5.398  -3.534   0.041  0.00  0.00    +0.040 C 
ATOM     12  C   LIG    1       -6.158  -1.503  -1.199  0.00  0.00    +0.040 C 
ENDBRANCH   4  10
TORSDOF 2
ENDMDL
MODEL      964
REMARK  Name = ZINC000001736034
REMARK                            x       y       z     vdW  Elec       q    Type
REMARK                         _______ _______ _______ _____ _____    ______ ____
ROOT
ATOM      1  C   LIG    1        1.238   1.376  -0.183  0.00  0.00    +0.100 C 
ATOM      2  C   LIG    1        0.922  -0.097  -0.140  0.00  0.00    -0.120 A 
ATOM      3  C   LIG    1        0.517  -0.750  -1.289  0.00  0.00    +0.050 A 
ATOM      4  C   LIG    1        0.228  -2.100  -1.252  0.00  0.00    -0.010 A 
ATOM      5  C   LIG    1        0.343  -2.801  -0.060  0.00  0.00    +0.120 A 
ATOM      6  C   LIG    1        0.749  -2.143   1.092  0.00  0.00    -0.060 A 
ATOM      7  C   LIG    1        1.043  -0.794   1.048  0.00  0.00    +0.050 A 
ENDROOT
BRANCH   5   8
ATOM      8  O   LIG    1        0.059  -4.129  -0.021  0.00  0.00    -0.260 OA
BRANCH   8   9
ATOM      9  C   LIG    1        0.177  -4.772   1.171  0.00  0.00    +0.080 A 
ATOM     10  C   LIG    1       -0.909  -4.848   2.030  0.00  0.00    +0.000 A 
ATOM     11  C   LIG    1       -0.785  -5.503   3.241  0.00  0.00    +0.020 A 
ATOM     12  C   LIG    1        0.419  -6.081   3.595  0.00  0.00    +0.010 A 
ATOM     13  C   LIG    1        1.503  -6.006   2.740  0.00  0.00    +0.020 A 
ATOM     14  C   LIG    1        1.384  -5.358   1.527  0.00  0.00    +0.000 A 
ENDBRANCH   8   9
ENDBRANCH   5   8
TORSDOF 2
ENDMDL
MODEL      965
REMARK  Name = ZINC000001748859
REMARK                            x       y       z     vdW  Elec       q    Type
REMARK                         _______ _______ _______ _____ _____    ______ ____
ROOT
ATOM      1  C   LIG    1       -0.874   1.097  -0.526  0.00  0.00    +0.100 C 
ATOM      2  C   LIG    1       -0.486  -0.336  -0.271  0.00  0.00    -0.050 A 
ATOM      3  C   LIG    1       -0.118  -1.148  -1.329  0.00  0.00    -0.010 A 
ATOM      4  C   LIG    1        0.238  -2.461  -1.104  0.00  0.00    +0.070 A 
ATOM      5  C   LIG    1        0.228  -2.971   0.198  0.00  0.00    -0.180 A 
ATOM      6  C   LIG    1       -0.145  -2.144   1.262  0.00  0.00    -0.020 A 
ATOM      7  C   LIG    1       -0.159  -2.684   2.670  0.00  0.00    +0.110 C 
ATOM      8  C   LIG    1       -0.493  -0.832   1.022  0.00  0.00    -0.010 A 
ENDROOT
BRANCH   5   9
ATOM      9  C   LIG    1        0.607  -4.372   0.447  0.00  0.00    +0.400 C 
ATOM     10  O   LIG    1        0.718  -4.777   1.585  0.00  0.00    -0.450 OA
BRANCH   9  11
ATOM     11  C   LIG    1        0.858  -5.302  -0.712  0.00  0.00    -0.110 C 
ATOM     12  C   LIG    1        2.098  -4.838  -1.479  0.00  0.00    +0.050 C 
ATOM     13  C   LIG    1       -0.353  -5.291  -1.646  0.00  0.00    +0.050 C 
ATOM     14  C   LIG    1        1.085  -6.721  -0.187  0.00  0.00    +0.050 C 
ENDBRANCH   9  11
ENDBRANCH   5   9
TORSDOF 2
ENDMDL
MODEL      966
REMARK  Name = ZINC000001841179
REMARK                            x       y       z     vdW  Elec       q    Type
REMARK                         _______ _______ _______ _____ _____    ______ ____
ROOT
ATOM      1  C   LIG    1       -0.018   1.503   0.010  0.00  0.00    +0.090 C 
ATOM      2  C   LIG    1        0.002  -0.004   0.002  0.00  0.00    -0.090 A 
ATOM      3  C   LIG    1        0.006  -0.686  -1.201  0.00  0.00    +0.020 A 
ATOM      4  C   LIG    1        0.025  -2.070  -1.214  0.00  0.00    +0.030 A 
ATOM      5  C   LIG    1        0.040  -2.771  -0.027  0.00  0.00    -0.100 A 
ATOM      6  C   LIG    1        0.061  -4.249   0.276  0.00  0.00    +0.160 C 
ATOM      7  C   LIG    1        0.070  -4.366   1.781  0.00  0.00    -0.090 A 
ATOM      8  C   LIG    1        0.089  -5.456   2.624  0.00  0.00    +0.030 A 
ATOM      9  C   LIG    1        0.093  -5.271   3.996  0.00  0.00    +0.020 A 
ATOM     10  C   LIG    1        0.079  -3.992   4.523  0.00  0.00    +0.010 A 
ATOM     11  C   LIG    1        0.059  -2.896   3.686  0.00  0.00    +0.020 A 
ATOM     12  C   LIG    1        0.055  -3.075   2.302  0.00  0.00    -0.060 A 
ATOM     13  C   LIG    1        0.036  -2.093   1.189  0.00  0.00    -0.050 A 
ATOM     14  C   LIG    1        0.023  -0.698   1.195  0.00  0.00    +0.020 A 
ENDROOT
TORSDOF 0
ENDMDL
MODEL      967
REMARK  Name = ZINC000001850505
REMARK                            x       y       z     vdW  Elec       q    Type
REMARK                         _______ _______ _______ _____ _____    ______ ____
ROOT
ATOM      1  C   LIG    1       -0.018   1.503   0.010  0.00  0.00    +0.080 C 
ATOM      2  C   LIG    1        0.002  -0.004   0.002  0.00  0.00    -0.120 C 
ATOM      3  C   LIG    1        0.005  -0.607  -1.144  0.00  0.00    -0.040 C 
ATOM      4  C   LIG    1        0.035  -2.098  -1.310  0.00  0.00    +0.060 C 
ATOM      5  C   LIG    1       -0.365  -2.783  -0.002  0.00  0.00    +0.030 C 
ATOM      6  C   LIG    1        0.456  -2.171   1.140  0.00  0.00    -0.060 C 
ATOM      7  C   LIG    1        1.944  -2.222   0.789  0.00  0.00    +0.030 C 
ATOM      8  C   LIG    1        0.204  -2.950   2.432  0.00  0.00    +0.030 C 
ATOM      9  C   LIG    1        0.024  -0.716   1.322  0.00  0.00    +0.160 C 
ATOM     10  C   LIG    1       -1.389  -0.680   1.942  0.00  0.00    +0.030 C 
ATOM     11  C   LIG    1       -1.081  -0.460   3.448  0.00  0.00    +0.000 C 
ATOM     12  C   LIG    1        0.181   0.434   3.363  0.00  0.00    +0.140 C 
ATOM     13  C   LIG    1        1.016   0.296   4.638  0.00  0.00    +0.040 C 
ATOM     14  O   LIG    1        0.914  -0.057   2.229  0.00  0.00    -0.360 OA
ENDROOT
TORSDOF 0
ENDMDL
MODEL      968
REMARK  Name = ZINC000001855250
REMARK                            x       y       z     vdW  Elec       q    Type
REMARK                         _______ _______ _______ _____ _____    ______ ____
ROOT
ATOM      1  C   LIG    1       -1.414  -2.036   0.129  0.00  0.00    +0.260 A 
ATOM      2  N   LIG    1       -0.847  -2.839  -0.722  0.00  0.00    -0.480 NA
ATOM      3  C   LIG    1       -1.026  -4.120  -0.301  0.00  0.00    +0.020 A 
ATOM      4  C   LIG    1       -0.644  -5.364  -0.805  0.00  0.00    +0.080 A 
ATOM      5  C   LIG    1       -0.990  -6.511  -0.125  0.00  0.00    +0.020 A 
ATOM      6  C   LIG    1       -1.714  -6.437   1.055  0.00  0.00    +0.050 A 
ATOM      7  C   LIG    1       -2.098  -5.214   1.565  0.00  0.00    +0.050 A 
ATOM      8  C   LIG    1       -1.758  -4.049   0.894  0.00  0.00    +0.000 A 
ATOM      9  O   LIG    1       -1.974  -2.736   1.127  0.00  0.00    -0.210 OA
ENDROOT
BRANCH   1  10
ATOM     10  C   LIG    1       -1.433  -0.534   0.013  0.00  0.00    +0.100 C 
BRANCH  10  12
ATOM     11  C   LIG    1       -0.019   1.526   0.010  0.00  0.00    +0.030 C 
ATOM     12  C   LIG    1        0.002  -0.004   0.002  0.00  0.00    +0.030 C 
ENDBRANCH  10  12
BRANCH  10  13
ATOM     13  C   LIG    1       -2.135  -0.131  -1.286  0.00  0.00    +0.050 C 
ATOM     14  C   LIG    1       -3.605  -0.552  -1.222  0.00  0.00    +0.010 C 
ENDBRANCH  10  13
ENDBRANCH   1  10
TORSDOF 3
ENDMDL
MODEL      969
REMARK  Name = ZINC000113079749
REMARK                            x       y       z     vdW  Elec       q    Type
REMARK                         _______ _______ _______ _____ _____    ______ ____
ROOT
ATOM      1  C   LIG    1        0.707  -0.490  -1.238  0.00  0.00    -0.100 A 
ATOM      2  C   LIG    1        0.222  -0.151  -2.486  0.00  0.00    +0.060 A 
ATOM      3  C   LIG    1        0.869  -0.597  -3.624  0.00  0.00    +0.020 A 
ATOM      4  C   LIG    1        2.002  -1.382  -3.514  0.00  0.00    -0.010 A 
ATOM      5  C   LIG    1        2.489  -1.722  -2.265  0.00  0.00    +0.010 A 
ATOM      6 CL   LIG    1        2.813  -1.940  -4.944  0.00  0.00    -0.060 Cl
ATOM      7  C   LIG    1        1.845  -1.272  -1.126  0.00  0.00    +0.110 A 
ATOM      8  F   LIG    1        2.320  -1.603   0.095  0.00  0.00    -0.130 F 
ENDROOT
BRANCH   1  10
ATOM      9  C   LIG    1       -0.019   1.526   0.010  0.00  0.00    +0.040 C 
ATOM     10  C   LIG    1        0.002  -0.004   0.002  0.00  0.00    +0.030 C 
ATOM     11  C   LIG    1       -1.433  -0.534   0.013  0.00  0.00    +0.040 C 
ENDBRANCH   1  10
TORSDOF 1
ENDMDL
MODEL      970
REMARK  Name = ZINC000001850501
REMARK                            x       y       z     vdW  Elec       q    Type
REMARK                         _______ _______ _______ _____ _____    ______ ____
ROOT
ATOM      1  C   LIG    1       -0.598   1.560   0.244  0.00  0.00    +0.070 C 
ATOM      2  C   LIG    1       -0.292   0.087   0.158  0.00  0.00    -0.140 C 
ATOM      3  C   LIG    1       -0.151  -0.440  -1.018  0.00  0.00    -0.030 C 
ATOM      4  C   LIG    1        0.145  -1.892  -1.253  0.00  0.00    +0.060 C 
ATOM      5  C   LIG    1        0.690  -2.537   0.023  0.00  0.00    +0.030 C 
ATOM      6  C   LIG    1       -0.248  -2.185   1.185  0.00  0.00    -0.050 C 
ATOM      7  C   LIG    1        0.184  -2.942   2.443  0.00  0.00    +0.040 C 
ATOM      8  C   LIG    1       -1.684  -2.570   0.822  0.00  0.00    +0.030 C 
ATOM      9  C   LIG    1       -0.162  -0.682   1.434  0.00  0.00    +0.160 C 
ATOM     10  C   LIG    1        1.169  -0.341   2.140  0.00  0.00    +0.020 C 
ATOM     11  C   LIG    1        0.816   0.975   2.878  0.00  0.00    +0.010 C 
ATOM     12  C   LIG    1       -0.723   0.959   2.963  0.00  0.00    +0.130 C 
ATOM     13  C   LIG    1       -1.164   1.029   4.426  0.00  0.00    +0.040 C 
ATOM     14  O   LIG    1       -1.173  -0.273   2.372  0.00  0.00    -0.350 OA
ENDROOT
TORSDOF 0
ENDMDL
MODEL      971
REMARK  Name = ZINC000001850504
REMARK                            x       y       z     vdW  Elec       q    Type
REMARK                         _______ _______ _______ _____ _____    ______ ____
ROOT
ATOM      1  C   LIG    1       -0.304   2.027   0.481  0.00  0.00    +0.080 C 
ATOM      2  C   LIG    1       -0.427   0.543   0.251  0.00  0.00    -0.140 C 
ATOM      3  C   LIG    1       -0.751   0.133  -0.935  0.00  0.00    -0.040 C 
ATOM      4  C   LIG    1       -0.920  -1.311  -1.306  0.00  0.00    +0.060 C 
ATOM      5  C   LIG    1       -0.249  -2.209  -0.265  0.00  0.00    +0.030 C 
ATOM      6  C   LIG    1       -0.717  -1.771   1.130  0.00  0.00    -0.050 C 
ATOM      7  C   LIG    1       -0.191  -2.750   2.181  0.00  0.00    +0.030 C 
ATOM      8  C   LIG    1       -2.246  -1.741   1.174  0.00  0.00    +0.030 C 
ATOM      9  C   LIG    1       -0.162  -0.374   1.405  0.00  0.00    +0.160 C 
ATOM     10  C   LIG    1       -0.816   0.199   2.684  0.00  0.00    +0.020 C 
ATOM     11  C   LIG    1        0.275   1.203   3.147  0.00  0.00    +0.010 C 
ATOM     12  C   LIG    1        1.577   0.494   2.718  0.00  0.00    +0.160 C 
ATOM     13  C   LIG    1        2.574   1.522   2.177  0.00  0.00    +0.030 C 
ATOM     14  O   LIG    1        1.240  -0.446   1.690  0.00  0.00    -0.360 OA
ENDROOT
TORSDOF 0
ENDMDL
MODEL      972
REMARK  Name = ZINC000002012236
REMARK                            x       y       z     vdW  Elec       q    Type
REMARK                         _______ _______ _______ _____ _____    ______ ____
ROOT
ATOM      1  C   LIG    1       -0.018   1.503   0.010  0.00  0.00    +0.090 C 
ATOM      2  C   LIG    1        0.002  -0.004   0.002  0.00  0.00    -0.090 A 
ATOM      3  C   LIG    1        0.006  -0.688  -1.200  0.00  0.00    +0.000 A 
ATOM      4  C   LIG    1        0.025  -2.071  -1.215  0.00  0.00    +0.000 A 
ATOM      5  C   LIG    1        0.040  -2.776  -0.029  0.00  0.00    +0.010 A 
ATOM      6  C   LIG    1        0.036  -2.092   1.185  0.00  0.00    -0.050 A 
ATOM      7  C   LIG    1        0.023  -0.699   1.194  0.00  0.00    -0.070 A 
ATOM      8  C   LIG    1        0.019   0.047   2.504  0.00  0.00    +0.090 C 
ENDROOT
BRANCH   6   9
ATOM      9  C   LIG    1        0.053  -2.845   2.464  0.00  0.00    -0.040 A 
ATOM     10  C   LIG    1        0.973  -2.517   3.457  0.00  0.00    +0.010 A 
ATOM     11  C   LIG    1        0.984  -3.220   4.644  0.00  0.00    +0.000 A 
ATOM     12  C   LIG    1        0.083  -4.250   4.849  0.00  0.00    +0.000 A 
ATOM     13  C   LIG    1       -0.833  -4.581   3.866  0.00  0.00    +0.000 A 
ATOM     14  C   LIG    1       -0.856  -3.880   2.678  0.00  0.00    +0.010 A 
ENDBRANCH   6   9
TORSDOF 1
ENDMDL
MODEL      973
REMARK  Name = ZINC000113826764
REMARK                            x       y       z     vdW  Elec       q    Type
REMARK                         _______ _______ _______ _____ _____    ______ ____
ROOT
ATOM      1  F   LIG    1        0.002  -0.004   0.002  0.00  0.00    -0.130 F 
ATOM      2  C   LIG    1       -0.016   1.347   0.009  0.00  0.00    +0.110 A 
ATOM      3  C   LIG    1       -1.224   2.023   0.030  0.00  0.00    +0.010 A 
ATOM      4  C   LIG    1       -1.241   3.406   0.038  0.00  0.00    -0.010 A 
ATOM      5  C   LIG    1       -0.052   4.113   0.025  0.00  0.00    +0.020 A 
ATOM      6  C   LIG    1        1.154   3.438   0.003  0.00  0.00    +0.060 A 
ATOM      7 CL   LIG    1       -2.755   4.255   0.065  0.00  0.00    -0.050 Cl
ATOM      8  C   LIG    1        1.173   2.056   0.002  0.00  0.00    -0.100 A 
ENDROOT
BRANCH   8   9
ATOM      9  C   LIG    1        2.489   1.321  -0.021  0.00  0.00    +0.020 C 
ATOM     10  C   LIG    1        3.557   1.997  -0.896  0.00  0.00    +0.030 C 
ATOM     11  C   LIG    1        4.572   1.634   0.200  0.00  0.00    +0.010 C 
ATOM     12  C   LIG    1        3.391   1.634   1.185  0.00  0.00    +0.020 C 
ENDBRANCH   8   9
TORSDOF 1
ENDMDL
MODEL      974
REMARK  Name = ZINC000002025594
REMARK                            x       y       z     vdW  Elec       q    Type
REMARK                         _______ _______ _______ _____ _____    ______ ____
ROOT
ATOM      1  C   LIG    1        1.448   1.280   0.029  0.00  0.00    +0.090 C 
ATOM      2  C   LIG    1        1.022  -0.165   0.017  0.00  0.00    -0.050 A 
ATOM      3  C   LIG    1        0.924  -0.846  -1.182  0.00  0.00    -0.020 A 
ATOM      4  C   LIG    1        0.533  -2.173  -1.197  0.00  0.00    +0.050 A 
ATOM      5  C   LIG    1        0.241  -2.821  -0.013  0.00  0.00    -0.020 A 
ATOM      6  C   LIG    1        0.339  -2.140   1.192  0.00  0.00    +0.130 A 
ATOM      7  C   LIG    1        0.736  -0.810   1.204  0.00  0.00    -0.070 A 
ENDROOT
BRANCH   6   8
ATOM      8  O   LIG    1        0.053  -2.775   2.359  0.00  0.00    -0.260 OA
BRANCH   8   9
ATOM      9  C   LIG    1        0.153  -2.066   3.513  0.00  0.00    +0.080 A 
ATOM     10  C   LIG    1       -0.945  -1.372   4.001  0.00  0.00    +0.000 A 
ATOM     11  C   LIG    1       -0.840  -0.652   5.175  0.00  0.00    +0.020 A 
ATOM     12  C   LIG    1        0.358  -0.621   5.863  0.00  0.00    +0.010 A 
ATOM     13  C   LIG    1        1.455  -1.311   5.380  0.00  0.00    +0.020 A 
ATOM     14  C   LIG    1        1.353  -2.038   4.210  0.00  0.00    +0.000 A 
ENDBRANCH   8   9
ENDBRANCH   6   8
TORSDOF 2
ENDMDL
MODEL      975
REMARK  Name = ZINC000114037369
REMARK                            x       y       z     vdW  Elec       q    Type
REMARK                         _______ _______ _______ _____ _____    ______ ____
ROOT
ATOM      1  C   LIG    1        0.707  -0.490  -1.238  0.00  0.00    -0.070 A 
ATOM      2  C   LIG    1        0.035  -1.284  -2.148  0.00  0.00    +0.050 A 
ATOM      3  C   LIG    1        0.681  -1.731  -3.286  0.00  0.00    +0.010 A 
ATOM      4  C   LIG    1        2.001  -1.383  -3.514  0.00  0.00    +0.100 A 
ATOM      5  C   LIG    1        2.674  -0.586  -2.602  0.00  0.00    -0.070 A 
ATOM      6 CL   LIG    1        4.329  -0.148  -2.886  0.00  0.00    -0.050 Cl
ATOM      7  F   LIG    1        2.632  -1.818  -4.627  0.00  0.00    -0.130 F 
ATOM      8  C   LIG    1        2.024  -0.137  -1.467  0.00  0.00    +0.060 A 
ENDROOT
BRANCH   1  10
ATOM      9  C   LIG    1       -0.019   1.526   0.010  0.00  0.00    +0.040 C 
ATOM     10  C   LIG    1        0.002  -0.004   0.002  0.00  0.00    -0.030 C 
ATOM     11  C   LIG    1       -1.433  -0.534   0.013  0.00  0.00    +0.030 C 
ATOM     12  C   LIG    1        0.742  -0.511   1.242  0.00  0.00    +0.040 C 
ENDBRANCH   1  10
TORSDOF 1
ENDMDL
MODEL      976
REMARK  Name = ZINC000002028916
REMARK                            x       y       z     vdW  Elec       q    Type
REMARK                         _______ _______ _______ _____ _____    ______ ____
ROOT
ATOM      1  C   LIG    1        1.523  -4.054   2.464  0.00  0.00    -0.020 C 
ATOM      2  C   LIG    1        2.677  -4.702   2.550  0.00  0.00    -0.010 C 
ENDROOT
BRANCH   2   3
ATOM      3  C   LIG    1        2.697  -6.180   2.542  0.00  0.00    -0.100 A 
ATOM      4  C   LIG    1        3.907  -6.876   2.637  0.00  0.00    +0.070 A 
ATOM      5  C   LIG    1        3.871  -8.259   2.626  0.00  0.00    -0.030 A 
ATOM      6  C   LIG    1        2.652  -8.904   2.521  0.00  0.00    +0.250 A 
ATOM      7  N   LIG    1        1.527  -8.222   2.432  0.00  0.00    -0.480 NA
ATOM      8  C   LIG    1        1.508  -6.905   2.445  0.00  0.00    +0.260 A 
ENDBRANCH   2   3
BRANCH   1   9
ATOM      9  C   LIG    1        1.503  -2.548   2.473  0.00  0.00    +0.060 C 
BRANCH   9  10
ATOM     10  C   LIG    1        0.763  -2.041   1.233  0.00  0.00    +0.000 C 
BRANCH  10  11
ATOM     11  C   LIG    1        0.742  -0.511   1.242  0.00  0.00    +0.000 C 
BRANCH  11  13
ATOM     12  C   LIG    1       -0.019   1.526   0.010  0.00  0.00    +0.000 C 
ATOM     13  C   LIG    1        0.002  -0.004   0.002  0.00  0.00    -0.010 C 
ENDBRANCH  11  13
ENDBRANCH  10  11
ENDBRANCH   9  10
ENDBRANCH   1   9
TORSDOF 5
ENDMDL
MODEL      977
REMARK  Name = ZINC000002036134
REMARK                            x       y       z     vdW  Elec       q    Type
REMARK                         _______ _______ _______ _____ _____    ______ ____
ROOT
ATOM      1  C   LIG    1        2.252  -4.577   3.685  0.00  0.00    -0.090 A 
ATOM      2  C   LIG    1        3.619  -4.782   3.637  0.00  0.00    +0.030 A 
ATOM      3  C   LIG    1        4.289  -5.240   4.755  0.00  0.00    -0.010 A 
ATOM      4  C   LIG    1        3.591  -5.493   5.926  0.00  0.00    +0.100 A 
ATOM      5  C   LIG    1        2.220  -5.285   5.972  0.00  0.00    -0.010 A 
ATOM      6  C   LIG    1        1.554  -4.823   4.853  0.00  0.00    +0.030 A 
ENDROOT
BRANCH   4   7
ATOM      7  O   LIG    1        4.248  -5.942   7.028  0.00  0.00    -0.500 OA
ATOM      8  H   LIG    1        4.573  -5.239   7.606  0.00  0.00    +0.390 HD
ENDBRANCH   4   7
BRANCH   1   9
ATOM      9  C   LIG    1        1.524  -4.077   2.464  0.00  0.00    +0.060 C 
BRANCH   9  10
ATOM     10  C   LIG    1        1.503  -2.548   2.473  0.00  0.00    +0.010 C 
BRANCH  10  11
ATOM     11  C   LIG    1        0.763  -2.041   1.233  0.00  0.00    +0.000 C 
BRANCH  11  12
ATOM     12  C   LIG    1        0.742  -0.511   1.242  0.00  0.00    +0.000 C 
BRANCH  12  14
ATOM     13  C   LIG    1       -0.019   1.526   0.010  0.00  0.00    +0.000 C 
ATOM     14  C   LIG    1        0.002  -0.004   0.002  0.00  0.00    -0.010 C 
ENDBRANCH  12  14
ENDBRANCH  11  12
ENDBRANCH  10  11
ENDBRANCH   9  10
ENDBRANCH   1   9
TORSDOF 6
ENDMDL
MODEL      978
REMARK  Name = ZINC000002036866
REMARK                            x       y       z     vdW  Elec       q    Type
REMARK                         _______ _______ _______ _____ _____    ______ ____
ROOT
ATOM      1  C   LIG    1       -0.018   1.503   0.010  0.00  0.00    +0.130 C 
ATOM      2  C   LIG    1        0.002  -0.004   0.002  0.00  0.00    -0.130 C 
ATOM      3  C   LIG    1        0.012  -0.927  -0.929  0.00  0.00    -0.120 C 
ATOM      4  C   LIG    1        0.036  -2.148  -0.044  0.00  0.00    -0.040 C 
ATOM      5  C   LIG    1        1.386  -2.553   0.519  0.00  0.00    -0.130 C 
ATOM      6  C   LIG    1        1.373  -1.629   1.466  0.00  0.00    -0.130 C 
ATOM      7  C   LIG    1        2.348  -1.259   2.553  0.00  0.00    +0.110 C 
ATOM      8  C   LIG    1        2.380  -3.620   0.138  0.00  0.00    +0.120 C 
ATOM      9  C   LIG    1       -1.050  -3.211  -0.223  0.00  0.00    +0.070 C 
ATOM     10  C   LIG    1        0.002  -0.804  -2.431  0.00  0.00    +0.100 C 
ATOM     11  C   LIG    1        0.027  -1.076   1.060  0.00  0.00    -0.030 C 
ATOM     12  C   LIG    1       -1.070  -1.032   2.126  0.00  0.00    +0.060 C 
ENDROOT
TORSDOF 0
ENDMDL
MODEL      979
REMARK  Name = ZINC000002038773
REMARK                            x       y       z     vdW  Elec       q    Type
REMARK                         _______ _______ _______ _____ _____    ______ ____
ROOT
ATOM      1  C   LIG    1        1.455  -2.521  -2.524  0.00  0.00    -0.020 C 
ATOM      2  C   LIG    1        2.924  -2.096  -2.474  0.00  0.00    +0.020 C 
ENDROOT
BRANCH   1   3
ATOM      3  C   LIG    1        0.739  -2.027  -1.265  0.00  0.00    +0.000 C 
BRANCH   3   4
ATOM      4  C   LIG    1        0.718  -0.497  -1.257  0.00  0.00    +0.000 C 
BRANCH   4   6
ATOM      5  C   LIG    1       -0.019   1.526   0.010  0.00  0.00    +0.000 C 
ATOM      6  C   LIG    1        0.002  -0.004   0.002  0.00  0.00    -0.010 C 
ENDBRANCH   4   6
ENDBRANCH   3   4
ENDBRANCH   1   3
BRANCH   1   7
ATOM      7  C   LIG    1        1.367  -4.046  -2.596  0.00  0.00    +0.000 C 
BRANCH   7   8
ATOM      8  C   LIG    1        1.973  -4.531  -3.915  0.00  0.00    -0.010 C 
ATOM      9  C   LIG    1        1.885  -6.057  -3.986  0.00  0.00    +0.000 C 
ENDBRANCH   7   8
ENDBRANCH   1   7
TORSDOF 5
ENDMDL
MODEL      980
REMARK  Name = ZINC000002037832
REMARK                            x       y       z     vdW  Elec       q    Type
REMARK                         _______ _______ _______ _____ _____    ______ ____
ROOT
ATOM      1  C   LIG    1       -0.018   1.503   0.010  0.00  0.00    +0.090 C 
ATOM      2  C   LIG    1        0.002  -0.004   0.002  0.00  0.00    -0.090 A 
ATOM      3  C   LIG    1        0.006  -0.686  -1.201  0.00  0.00    +0.010 A 
ATOM      4  C   LIG    1        0.024  -2.067  -1.214  0.00  0.00    +0.010 A 
ATOM      5  C   LIG    1        0.039  -2.772  -0.013  0.00  0.00    -0.050 A 
ATOM      6  C   LIG    1        0.036  -2.079   1.196  0.00  0.00    +0.010 A 
ATOM      7  C   LIG    1        0.023  -0.700   1.198  0.00  0.00    -0.080 A 
ATOM      8  C   LIG    1        0.020   0.051   2.505  0.00  0.00    +0.090 C 
ENDROOT
BRANCH   5   9
ATOM      9  C   LIG    1        0.059  -4.256  -0.021  0.00  0.00    -0.040 A 
ATOM     10  C   LIG    1        0.069  -4.962   1.180  0.00  0.00    +0.010 A 
ATOM     11  C   LIG    1        0.087  -6.342   1.167  0.00  0.00    +0.000 A 
ATOM     12  C   LIG    1        0.097  -7.024  -0.037  0.00  0.00    +0.000 A 
ATOM     13  C   LIG    1        0.088  -6.329  -1.232  0.00  0.00    +0.000 A 
ATOM     14  C   LIG    1        0.063  -4.949  -1.230  0.00  0.00    +0.020 A 
ENDBRANCH   5   9
TORSDOF 1
ENDMDL
MODEL      981
REMARK  Name = ZINC000002038253
REMARK                            x       y       z     vdW  Elec       q    Type
REMARK                         _______ _______ _______ _____ _____    ______ ____
ROOT
ATOM      1  C   LIG    1        2.244  -4.471   3.755  0.00  0.00    -0.010 C 
ENDROOT
BRANCH   1   2
ATOM      2  C   LIG    1        1.481  -3.960   2.531  0.00  0.00    +0.020 C 
BRANCH   2   3
ATOM      3  C   LIG    1        0.013  -4.379   2.635  0.00  0.00    +0.000 C 
BRANCH   3   4
ATOM      4  C   LIG    1       -0.776  -3.760   1.479  0.00  0.00    +0.000 C 
BRANCH   4   5
ATOM      5  C   LIG    1       -2.244  -4.178   1.583  0.00  0.00    +0.000 C 
BRANCH   5   7
ATOM      6  C   LIG    1       -4.502  -3.978   0.530  0.00  0.00    +0.000 C 
ATOM      7  C   LIG    1       -3.034  -3.559   0.427  0.00  0.00    -0.010 C 
ENDBRANCH   5   7
ENDBRANCH   4   5
ENDBRANCH   3   4
ENDBRANCH   2   3
ENDBRANCH   1   2
BRANCH   1   8
ATOM      8  C   LIG    1        2.274  -6.001   3.736  0.00  0.00    +0.010 C 
BRANCH   8   9
ATOM      9  C   LIG    1        2.927  -6.514   5.021  0.00  0.00    +0.000 C 
BRANCH   9  10
ATOM     10  C   LIG    1        2.957  -8.044   5.001  0.00  0.00    -0.010 C 
ATOM     11  C   LIG    1        3.610  -8.558   6.286  0.00  0.00    +0.000 C 
ENDBRANCH   9  10
ENDBRANCH   8   9
ENDBRANCH   1   8
BRANCH   1  12
ATOM     12  C   LIG    1        3.676  -3.933   3.725  0.00  0.00    +0.170 C 
BRANCH  12  13
ATOM     13  O   LIG    1        3.652  -2.509   3.846  0.00  0.00    -0.570 OA
ATOM     14  H   LIG    1        4.527  -2.098   3.834  0.00  0.00    +0.380 HD
ENDBRANCH  12  13
ENDBRANCH   1  12
TORSDOF 10
ENDMDL
MODEL      982
REMARK  Name = ZINC000002038871
REMARK                            x       y       z     vdW  Elec       q    Type
REMARK                         _______ _______ _______ _____ _____    ______ ____
ROOT
ATOM      1  C   LIG    1        0.193   1.505  -0.004  0.00  0.00    +0.090 C 
ATOM      2  C   LIG    1        0.182  -0.004  -0.010  0.00  0.00    -0.070 A 
ATOM      3  C   LIG    1        0.144  -0.558  -1.264  0.00  0.00    -0.010 A 
ATOM      4  C   LIG    1        0.129  -1.929  -1.458  0.00  0.00    +0.010 A 
ATOM      5  C   LIG    1        0.151  -2.762  -0.385  0.00  0.00    +0.010 A 
ATOM      6  C   LIG    1        0.190  -2.239   0.918  0.00  0.00    -0.040 A 
ATOM      7  C   LIG    1        0.210  -3.123   2.010  0.00  0.00    -0.080 A 
ATOM      8  C   LIG    1        0.248  -2.638   3.280  0.00  0.00    +0.010 A 
ATOM      9  C   LIG    1        0.268  -1.271   3.495  0.00  0.00    +0.000 A 
ATOM     10  C   LIG    1        0.251  -0.373   2.458  0.00  0.00    -0.080 A 
ATOM     11  C   LIG    1        0.280   1.071   2.893  0.00  0.00    +0.090 C 
ATOM     12  C   LIG    1        0.190  -4.618   1.808  0.00  0.00    +0.090 C 
ATOM     13  C   LIG    1        0.207  -0.820   1.130  0.00  0.00    -0.030 A 
ENDROOT
TORSDOF 0
ENDMDL
MODEL      983
REMARK  Name = ZINC000002077724
REMARK                            x       y       z     vdW  Elec       q    Type
REMARK                         _______ _______ _______ _____ _____    ______ ____
ROOT
ATOM      1  C   LIG    1        2.264  -4.584   3.704  0.00  0.00    +0.210 C 
ENDROOT
BRANCH   1   2
ATOM      2  C   LIG    1        2.393  -6.107   3.633  0.00  0.00    -0.050 C 
ATOM      3  C   LIG    1        3.294  -6.520   2.442  0.00  0.00    +0.020 C 
ATOM      4  C   LIG    1        3.799  -7.921   2.865  0.00  0.00    +0.000 C 
ATOM      5  C   LIG    1        4.031  -7.797   4.385  0.00  0.00    -0.010 C 
ATOM      6  C   LIG    1        3.137  -6.644   4.873  0.00  0.00    +0.020 C 
ENDBRANCH   1   2
BRANCH   1   7
ATOM      7  O   LIG    1        1.532  -4.223   4.877  0.00  0.00    -0.560 OA
ATOM      8  H   LIG    1        0.637  -4.587   4.910  0.00  0.00    +0.370 HD
ENDBRANCH   1   7
BRANCH   1   9
ATOM      9  C   LIG    1        1.524  -4.077   2.464  0.00  0.00    -0.020 C 
BRANCH   9  10
ATOM     10  C   LIG    1        1.503  -2.548   2.473  0.00  0.00    +0.010 C 
BRANCH  10  11
ATOM     11  C   LIG    1        0.763  -2.041   1.233  0.00  0.00    +0.000 C 
BRANCH  11  12
ATOM     12  C   LIG    1        0.742  -0.511   1.242  0.00  0.00    +0.000 C 
BRANCH  12  14
ATOM     13  C   LIG    1       -0.019   1.526   0.010  0.00  0.00    +0.000 C 
ATOM     14  C   LIG    1        0.002  -0.004   0.002  0.00  0.00    -0.010 C 
ENDBRANCH  12  14
ENDBRANCH  11  12
ENDBRANCH  10  11
ENDBRANCH   9  10
ENDBRANCH   1   9
TORSDOF 7
ENDMDL
MODEL      984
REMARK  Name = ZINC000002077722
REMARK                            x       y       z     vdW  Elec       q    Type
REMARK                         _______ _______ _______ _____ _____    ______ ____
ROOT
ATOM      1  C   LIG    1        2.264  -4.584   3.704  0.00  0.00    +0.210 C 
ENDROOT
BRANCH   1   2
ATOM      2  C   LIG    1        2.177  -6.111   3.761  0.00  0.00    -0.050 C 
ATOM      3  C   LIG    1        3.037  -6.745   2.640  0.00  0.00    +0.020 C 
ATOM      4  C   LIG    1        3.327  -8.162   3.192  0.00  0.00    +0.000 C 
ATOM      5  C   LIG    1        3.539  -7.943   4.704  0.00  0.00    -0.010 C 
ATOM      6  C   LIG    1        2.807  -6.639   5.066  0.00  0.00    +0.010 C 
ENDBRANCH   1   2
BRANCH   1   7
ATOM      7  O   LIG    1        3.635  -4.187   3.636  0.00  0.00    -0.560 OA
ATOM      8  H   LIG    1        4.105  -4.529   2.863  0.00  0.00    +0.370 HD
ENDBRANCH   1   7
BRANCH   1   9
ATOM      9  C   LIG    1        1.524  -4.077   2.464  0.00  0.00    -0.010 C 
BRANCH   9  10
ATOM     10  C   LIG    1        1.503  -2.548   2.473  0.00  0.00    +0.010 C 
BRANCH  10  11
ATOM     11  C   LIG    1        0.763  -2.041   1.233  0.00  0.00    +0.000 C 
BRANCH  11  12
ATOM     12  C   LIG    1        0.742  -0.511   1.242  0.00  0.00    +0.000 C 
BRANCH  12  14
ATOM     13  C   LIG    1       -0.019   1.526   0.010  0.00  0.00    +0.000 C 
ATOM     14  C   LIG    1        0.002  -0.004   0.002  0.00  0.00    -0.010 C 
ENDBRANCH  12  14
ENDBRANCH  11  12
ENDBRANCH  10  11
ENDBRANCH   9  10
ENDBRANCH   1   9
TORSDOF 7
ENDMDL
MODEL      985
REMARK  Name = ZINC000116862049
REMARK                            x       y       z     vdW  Elec       q    Type
REMARK                         _______ _______ _______ _____ _____    ______ ____
ROOT
ATOM      1  C   LIG    1        0.707  -0.490  -1.238  0.00  0.00    -0.100 A 
ATOM      2  C   LIG    1        1.217   0.420  -2.145  0.00  0.00    +0.070 A 
ATOM      3  C   LIG    1        1.864  -0.025  -3.282  0.00  0.00    +0.020 A 
ATOM      4  C   LIG    1        2.002  -1.382  -3.514  0.00  0.00    -0.010 A 
ATOM      5  C   LIG    1        1.493  -2.294  -2.608  0.00  0.00    +0.000 A 
ATOM      6 CL   LIG    1        2.816  -1.940  -4.943  0.00  0.00    -0.060 Cl
ATOM      7  C   LIG    1        0.850  -1.849  -1.466  0.00  0.00    +0.120 A 
ATOM      8  F   LIG    1        0.353  -2.739  -0.579  0.00  0.00    -0.130 F 
ENDROOT
BRANCH   1  10
ATOM      9  C   LIG    1       -0.019   1.526   0.010  0.00  0.00    +0.030 C 
ATOM     10  C   LIG    1        0.002  -0.004   0.002  0.00  0.00    -0.030 C 
ATOM     11  C   LIG    1       -1.433  -0.534   0.013  0.00  0.00    +0.030 C 
ATOM     12  C   LIG    1        0.742  -0.511   1.242  0.00  0.00    +0.030 C 
ENDBRANCH   1  10
TORSDOF 1
ENDMDL
MODEL      986
REMARK  Name = ZINC000002162338
REMARK                            x       y       z     vdW  Elec       q    Type
REMARK                         _______ _______ _______ _____ _____    ______ ____
ROOT
ATOM      1  C   LIG    1        0.739  -2.027  -1.265  0.00  0.00    -0.010 C 
ATOM      2  C   LIG    1       -0.695  -2.561  -1.265  0.00  0.00    +0.060 C 
ATOM      3  C   LIG    1       -0.697  -4.037  -1.539  0.00  0.00    -0.060 C 
ATOM      4  C   LIG    1        0.302  -4.681  -2.050  0.00  0.00    -0.060 C 
ATOM      5  C   LIG    1        1.607  -4.044  -2.430  0.00  0.00    +0.050 C 
ATOM      6  C   LIG    1        1.447  -2.526  -2.531  0.00  0.00    +0.020 C 
ENDROOT
BRANCH   1   7
ATOM      7  C   LIG    1        0.718  -0.497  -1.257  0.00  0.00    -0.060 C 
ATOM      8  C   LIG    1        2.154   0.032  -1.268  0.00  0.00    +0.020 C 
ATOM      9  C   LIG    1       -0.022   0.009  -2.496  0.00  0.00    +0.030 C 
BRANCH   7  11
ATOM     10  C   LIG    1       -0.019   1.526   0.010  0.00  0.00    +0.010 C 
ATOM     11  C   LIG    1        0.002  -0.004   0.002  0.00  0.00    +0.000 C 
ENDBRANCH   7  11
ENDBRANCH   1   7
TORSDOF 2
ENDMDL
MODEL      987
REMARK  Name = ZINC000002144724
REMARK                            x       y       z     vdW  Elec       q    Type
REMARK                         _______ _______ _______ _____ _____    ______ ____
ROOT
ATOM      1  C   LIG    1        0.859  -1.934  -1.480  0.00  0.00    -0.180 A 
ATOM      2  C   LIG    1        0.345  -2.858  -0.565  0.00  0.00    +0.060 A 
ATOM      3  C   LIG    1        0.492  -4.209  -0.799  0.00  0.00    +0.000 A 
ATOM      4  C   LIG    1        1.146  -4.651  -1.935  0.00  0.00    -0.040 A 
ATOM      5  C   LIG    1        1.657  -3.743  -2.846  0.00  0.00    +0.000 A 
ATOM      6  C   LIG    1        1.513  -2.389  -2.629  0.00  0.00    +0.070 A 
ENDROOT
BRANCH   4   7
ATOM      7  C   LIG    1        1.301  -6.129  -2.183  0.00  0.00    -0.040 C 
ATOM      8  C   LIG    1        2.088  -6.760  -1.032  0.00  0.00    +0.040 C 
ATOM      9  C   LIG    1        2.054  -6.350  -3.497  0.00  0.00    +0.030 C 
ATOM     10  C   LIG    1       -0.081  -6.780  -2.272  0.00  0.00    +0.040 C 
ENDBRANCH   4   7
BRANCH   1  11
ATOM     11  C   LIG    1        0.707  -0.490  -1.238  0.00  0.00    +0.390 C 
ATOM     12  O   LIG    1        1.150   0.308  -2.036  0.00  0.00    -0.450 OA
BRANCH  11  14
ATOM     13  C   LIG    1       -0.019   1.526   0.010  0.00  0.00    +0.030 C 
ATOM     14  C   LIG    1        0.002  -0.004   0.002  0.00  0.00    +0.030 C 
ENDBRANCH  11  14
ENDBRANCH   1  11
TORSDOF 3
ENDMDL
MODEL      988
REMARK  Name = ZINC000002164365
REMARK                            x       y       z     vdW  Elec       q    Type
REMARK                         _______ _______ _______ _____ _____    ______ ____
ROOT
ATOM      1  C   LIG    1        1.476  -4.051  -2.532  0.00  0.00    +0.100 C 
ENDROOT
BRANCH   1   2
ATOM      2  C   LIG    1        2.181  -4.537  -3.772  0.00  0.00    -0.170 A 
ATOM      3  C   LIG    1        3.489  -4.780  -3.867  0.00  0.00    +0.000 A 
ATOM      4  C   LIG    1        3.912  -5.221  -5.110  0.00  0.00    +0.010 A 
ATOM      5  C   LIG    1        2.947  -5.335  -6.023  0.00  0.00    -0.060 A 
ATOM      6  S   LIG    1        1.404  -4.877  -5.313  0.00  0.00    +0.090 S 
ENDBRANCH   1   2
BRANCH   1   7
ATOM      7  C   LIG    1        1.455  -2.521  -2.524  0.00  0.00    +0.020 C 
BRANCH   7   8
ATOM      8  C   LIG    1        0.739  -2.027  -1.265  0.00  0.00    +0.000 C 
BRANCH   8   9
ATOM      9  C   LIG    1        0.718  -0.497  -1.257  0.00  0.00    +0.000 C 
BRANCH   9  11
ATOM     10  C   LIG    1       -0.019   1.526   0.010  0.00  0.00    +0.000 C 
ATOM     11  C   LIG    1        0.002  -0.004   0.002  0.00  0.00    -0.010 C 
ENDBRANCH   9  11
ENDBRANCH   8   9
ENDBRANCH   7   8
ENDBRANCH   1   7
TORSDOF 5
ENDMDL
MODEL      989
REMARK  Name = ZINC000002163958
REMARK                            x       y       z     vdW  Elec       q    Type
REMARK                         _______ _______ _______ _____ _____    ______ ____
ROOT
ATOM      1  C   LIG    1        0.739  -2.027  -1.265  0.00  0.00    -0.010 C 
ATOM      2  C   LIG    1       -0.696  -2.557  -1.254  0.00  0.00    +0.020 C 
ATOM      3  C   LIG    1       -0.676  -4.087  -1.263  0.00  0.00    +0.020 C 
ATOM      4  C   LIG    1        0.041  -4.580  -2.522  0.00  0.00    +0.150 C 
ATOM      5  C   LIG    1        1.476  -4.051  -2.532  0.00  0.00    -0.010 C 
ATOM      6  C   LIG    1        1.455  -2.521  -2.524  0.00  0.00    +0.020 C 
ENDROOT
BRANCH   1   7
ATOM      7  C   LIG    1        0.718  -0.497  -1.257  0.00  0.00    -0.060 C 
ATOM      8  C   LIG    1        2.154   0.032  -1.268  0.00  0.00    +0.020 C 
ATOM      9  C   LIG    1       -0.022   0.009  -2.496  0.00  0.00    +0.020 C 
BRANCH   7  11
ATOM     10  C   LIG    1       -0.019   1.526   0.010  0.00  0.00    +0.010 C 
ATOM     11  C   LIG    1        0.002  -0.004   0.002  0.00  0.00    +0.000 C 
ENDBRANCH   7  11
ENDBRANCH   1   7
BRANCH   4  12
ATOM     12  O   LIG    1       -0.651  -4.107  -3.679  0.00  0.00    -0.380 OA
ATOM     13  C   LIG    1       -0.547  -4.971  -4.812  0.00  0.00    +0.190 C 
ENDBRANCH   4  12
TORSDOF 3
ENDMDL
MODEL      990
REMARK  Name = ZINC000002162343
REMARK                            x       y       z     vdW  Elec       q    Type
REMARK                         _______ _______ _______ _____ _____    ______ ____
ROOT
ATOM      1  C   LIG    1       -2.853  -2.673  -0.279  0.00  0.00    -0.030 C 
ATOM      2  C   LIG    1       -2.796  -4.162  -0.635  0.00  0.00    +0.030 C 
ATOM      3  C   LIG    1       -4.213  -4.738  -0.637  0.00  0.00    +0.010 C 
ATOM      4  C   LIG    1       -4.810  -4.653   0.769  0.00  0.00    +0.030 C 
ATOM      5  C   LIG    1       -4.942  -3.183   1.178  0.00  0.00    +0.020 C 
ATOM      6  C   LIG    1       -3.591  -2.515   1.032  0.00  0.00    +0.360 C 
ATOM      7  O   LIG    1       -3.113  -1.880   1.940  0.00  0.00    -0.450 OA
ENDROOT
BRANCH   1   8
ATOM      8  C   LIG    1       -1.432  -2.124  -0.138  0.00  0.00    +0.030 C 
BRANCH   8   9
ATOM      9  C   LIG    1       -1.488  -0.608   0.060  0.00  0.00    -0.010 C 
BRANCH   9  11
ATOM     10  C   LIG    1       -0.150   1.418   0.648  0.00  0.00    +0.010 C 
ATOM     11  C   LIG    1       -0.078  -0.076   0.328  0.00  0.00    +0.000 C 
ENDBRANCH   9  11
BRANCH   9  12
ATOM     12  C   LIG    1       -2.049   0.050  -1.202  0.00  0.00    +0.000 C 
ATOM     13  C   LIG    1       -1.158  -0.295  -2.397  0.00  0.00    +0.010 C 
ENDBRANCH   9  12
ENDBRANCH   8   9
ENDBRANCH   1   8
TORSDOF 4
ENDMDL
MODEL      991
REMARK  Name = ZINC000002162337
REMARK                            x       y       z     vdW  Elec       q    Type
REMARK                         _______ _______ _______ _____ _____    ______ ____
ROOT
ATOM      1  C   LIG    1        0.739  -2.027  -1.265  0.00  0.00    -0.010 C 
ATOM      2  C   LIG    1        1.487  -2.538  -0.032  0.00  0.00    +0.060 C 
ATOM      3  C   LIG    1        1.747  -4.011  -0.159  0.00  0.00    -0.060 C 
ATOM      4  C   LIG    1        1.679  -4.667  -1.273  0.00  0.00    -0.060 C 
ATOM      5  C   LIG    1        1.322  -4.047  -2.592  0.00  0.00    +0.050 C 
ATOM      6  C   LIG    1        1.465  -2.526  -2.521  0.00  0.00    +0.020 C 
ENDROOT
BRANCH   1   7
ATOM      7  C   LIG    1        0.718  -0.497  -1.257  0.00  0.00    -0.060 C 
ATOM      8  C   LIG    1        2.154   0.032  -1.268  0.00  0.00    +0.030 C 
ATOM      9  C   LIG    1       -0.022   0.009  -2.496  0.00  0.00    +0.020 C 
BRANCH   7  11
ATOM     10  C   LIG    1       -0.019   1.526   0.010  0.00  0.00    +0.010 C 
ATOM     11  C   LIG    1        0.002  -0.004   0.002  0.00  0.00    +0.000 C 
ENDBRANCH   7  11
ENDBRANCH   1   7
TORSDOF 2
ENDMDL
MODEL      992
REMARK  Name = ZINC000002165950
REMARK                            x       y       z     vdW  Elec       q    Type
REMARK                         _______ _______ _______ _____ _____    ______ ____
ROOT
ATOM      1  C   LIG    1       -1.412  -0.526   0.013  0.00  0.00    -0.060 A 
ATOM      2  C   LIG    1       -2.259  -0.204   1.057  0.00  0.00    +0.000 A 
ATOM      3  C   LIG    1       -3.557  -0.681   1.070  0.00  0.00    +0.030 A 
ATOM      4  C   LIG    1       -4.010  -1.480   0.039  0.00  0.00    -0.100 A 
ATOM      5  C   LIG    1       -3.162  -1.805  -1.011  0.00  0.00    +0.110 A 
ATOM      6  C   LIG    1       -1.862  -1.321  -1.024  0.00  0.00    -0.010 A 
ENDROOT
BRANCH   1   8
ATOM      7  C   LIG    1       -0.019   1.526   0.010  0.00  0.00    +0.040 C 
ATOM      8  C   LIG    1        0.002  -0.004   0.002  0.00  0.00    +0.020 C 
ATOM      9  C   LIG    1        0.742  -0.511   1.242  0.00  0.00    +0.030 C 
ENDBRANCH   1   8
BRANCH   4  10
ATOM     10  C   LIG    1       -5.425  -2.000   0.053  0.00  0.00    +0.020 C 
ATOM     11  C   LIG    1       -6.400  -0.821   0.062  0.00  0.00    +0.030 C 
ATOM     12  C   LIG    1       -5.642  -2.852   1.304  0.00  0.00    +0.040 C 
ENDBRANCH   4  10
BRANCH   5  13
ATOM     13  O   LIG    1       -3.606  -2.591  -2.026  0.00  0.00    -0.500 OA
ATOM     14  H   LIG    1       -4.002  -2.100  -2.759  0.00  0.00    +0.390 HD
ENDBRANCH   5  13
TORSDOF 3
ENDMDL
MODEL      993
REMARK  Name = ZINC000002167280
REMARK                            x       y       z     vdW  Elec       q    Type
REMARK                         _______ _______ _______ _____ _____    ______ ____
ROOT
ATOM      1  C   LIG    1        1.476  -4.028  -2.532  0.00  0.00    +0.360 C 
ATOM      2  O   LIG    1        0.970  -4.643  -1.625  0.00  0.00    -0.450 OA
ENDROOT
BRANCH   1   3
ATOM      3  C   LIG    1        2.127  -4.766  -3.673  0.00  0.00    -0.040 C 
ATOM      4  C   LIG    1        3.604  -5.003  -3.349  0.00  0.00    +0.050 C 
BRANCH   3   5
ATOM      5  C   LIG    1        1.428  -6.111  -3.876  0.00  0.00    +0.020 C 
BRANCH   5   6
ATOM      6  C   LIG    1        2.006  -6.806  -5.110  0.00  0.00    +0.000 C 
ATOM      7  C   LIG    1        1.306  -8.152  -5.313  0.00  0.00    +0.010 C 
ENDBRANCH   5   6
ENDBRANCH   3   5
ENDBRANCH   1   3
BRANCH   1   8
ATOM      8  C   LIG    1        1.455  -2.521  -2.524  0.00  0.00    +0.030 C 
BRANCH   8   9
ATOM      9  C   LIG    1        0.739  -2.027  -1.265  0.00  0.00    +0.030 C 
BRANCH   9  10
ATOM     10  C   LIG    1        0.718  -0.497  -1.257  0.00  0.00    +0.000 C 
BRANCH  10  12
ATOM     11  C   LIG    1       -0.019   1.526   0.010  0.00  0.00    +0.000 C 
ATOM     12  C   LIG    1        0.002  -0.004   0.002  0.00  0.00    -0.010 C 
ENDBRANCH  10  12
ENDBRANCH   9  10
ENDBRANCH   8   9
ENDBRANCH   1   8
TORSDOF 7
ENDMDL
MODEL      994
REMARK  Name = ZINC000002167288
REMARK                            x       y       z     vdW  Elec       q    Type
REMARK                         _______ _______ _______ _____ _____    ______ ____
ROOT
ATOM      1  O   LIG    1        2.215  -4.551   3.622  0.00  0.00    -0.380 OA
ENDROOT
BRANCH   1   2
ATOM      2  C   LIG    1        1.524  -4.077   2.464  0.00  0.00    +0.160 C 
BRANCH   2   3
ATOM      3  C   LIG    1        1.503  -2.548   2.473  0.00  0.00    +0.020 C 
BRANCH   3   4
ATOM      4  C   LIG    1        0.763  -2.041   1.233  0.00  0.00    +0.000 C 
BRANCH   4   5
ATOM      5  C   LIG    1        0.742  -0.511   1.242  0.00  0.00    +0.000 C 
BRANCH   5   7
ATOM      6  C   LIG    1       -0.019   1.526   0.010  0.00  0.00    +0.000 C 
ATOM      7  C   LIG    1        0.002  -0.004   0.002  0.00  0.00    -0.010 C 
ENDBRANCH   5   7
ENDBRANCH   4   5
ENDBRANCH   3   4
ENDBRANCH   2   3
ENDBRANCH   1   2
BRANCH   1   8
ATOM      8  C   LIG    1        2.291  -5.975   3.711  0.00  0.00    +0.220 C 
BRANCH   8   9
ATOM      9  C   LIG    1        3.037  -6.360   4.963  0.00  0.00    -0.090 A 
ATOM     10  C   LIG    1        4.410  -6.514   4.930  0.00  0.00    +0.020 A 
ATOM     11  C   LIG    1        5.093  -6.868   6.079  0.00  0.00    +0.000 A 
ATOM     12  C   LIG    1        4.404  -7.067   7.260  0.00  0.00    +0.010 A 
ATOM     13  C   LIG    1        3.031  -6.912   7.293  0.00  0.00    +0.000 A 
ATOM     14  C   LIG    1        2.348  -6.554   6.146  0.00  0.00    +0.020 A 
ENDBRANCH   8   9
ENDBRANCH   1   8
TORSDOF 7
ENDMDL
MODEL      995
REMARK  Name = ZINC000002168667
REMARK                            x       y       z     vdW  Elec       q    Type
REMARK                         _______ _______ _______ _____ _____    ______ ____
ROOT
ATOM      1  C   LIG    1        0.655  -2.037   1.299  0.00  0.00    +0.000 C 
ENDROOT
BRANCH   1   2
ATOM      2  C   LIG    1        0.742  -0.511   1.242  0.00  0.00    -0.020 C 
ATOM      3  C   LIG    1        2.210  -0.086   1.169  0.00  0.00    +0.020 C 
BRANCH   2   5
ATOM      4  C   LIG    1       -0.019   1.526   0.010  0.00  0.00    +0.000 C 
ATOM      5  C   LIG    1        0.002  -0.004   0.002  0.00  0.00    +0.000 C 
ENDBRANCH   2   5
ENDBRANCH   1   2
BRANCH   1   6
ATOM      6  C   LIG    1        1.286  -2.536   2.600  0.00  0.00    +0.000 C 
BRANCH   6   7
ATOM      7  C   LIG    1        1.200  -4.062   2.657  0.00  0.00    +0.000 C 
BRANCH   7   8
ATOM      8  C   LIG    1        1.831  -4.561   3.959  0.00  0.00    -0.030 C 
ATOM      9  C   LIG    1        1.857  -6.090   3.960  0.00  0.00    +0.000 C 
ATOM     10  C   LIG    1        1.006  -4.064   5.148  0.00  0.00    +0.010 C 
ENDBRANCH   7   8
ENDBRANCH   6   7
ENDBRANCH   1   6
TORSDOF 5
ENDMDL
MODEL      996
REMARK  Name = ZINC000002173304
REMARK                            x       y       z     vdW  Elec       q    Type
REMARK                         _______ _______ _______ _____ _____    ______ ____
ROOT
ATOM      1  C   LIG    1        1.444  -2.513  -2.505  0.00  0.00    +0.160 A 
ATOM      2  C   LIG    1        2.520  -3.388  -2.374  0.00  0.00    -0.030 A 
ATOM      3  C   LIG    1        3.171  -3.839  -3.487  0.00  0.00    +0.080 A 
ATOM      4  C   LIG    1        2.722  -3.396  -4.745  0.00  0.00    -0.110 A 
ATOM      5  C   LIG    1        3.341  -3.817  -5.933  0.00  0.00    +0.030 A 
ATOM      6  C   LIG    1        2.877  -3.365  -7.130  0.00  0.00    +0.010 A 
ATOM      7  C   LIG    1        1.795  -2.490  -7.193  0.00  0.00    +0.030 A 
ATOM      8  C   LIG    1        1.171  -2.061  -6.062  0.00  0.00    +0.040 A 
ATOM      9  C   LIG    1        1.621  -2.505  -4.806  0.00  0.00    +0.130 A 
ATOM     10  N   LIG    1        1.025  -2.106  -3.679  0.00  0.00    -0.470 NA
ENDROOT
BRANCH   1  11
ATOM     11  C   LIG    1        0.739  -2.027  -1.265  0.00  0.00    +0.100 C 
BRANCH  11  12
ATOM     12  C   LIG    1        0.718  -0.497  -1.257  0.00  0.00    +0.020 C 
BRANCH  12  14
ATOM     13  C   LIG    1       -0.019   1.526   0.010  0.00  0.00    +0.000 C 
ATOM     14  C   LIG    1        0.002  -0.004   0.002  0.00  0.00    -0.010 C 
ENDBRANCH  12  14
ENDBRANCH  11  12
ENDBRANCH   1  11
TORSDOF 3
ENDMDL
MODEL      997
REMARK  Name = ZINC000002275118
REMARK                            x       y       z     vdW  Elec       q    Type
REMARK                         _______ _______ _______ _____ _____    ______ ____
ROOT
ATOM      1  N   LIG    1       -4.202  -4.630   0.017  0.00  0.00    -0.750 N 
ATOM      2  H   LIG    1       -4.947  -4.010   0.028  0.00  0.00    +0.400 HD
ENDROOT
BRANCH   1   3
ATOM      3  C   LIG    1       -4.438  -6.006   0.012  0.00  0.00    +0.220 A 
ATOM      4  C   LIG    1       -3.372  -6.896   0.003  0.00  0.00    -0.080 A 
ATOM      5  C   LIG    1       -3.609  -8.257  -0.002  0.00  0.00    +0.050 A 
ATOM      6  C   LIG    1       -4.907  -8.734   0.003  0.00  0.00    -0.060 A 
ATOM      7  C   LIG    1       -5.971  -7.851   0.012  0.00  0.00    -0.040 A 
ATOM      8  C   LIG    1       -7.384  -8.375   0.017  0.00  0.00    +0.090 C 
ATOM      9  C   LIG    1       -5.741  -6.489   0.022  0.00  0.00    -0.080 A 
ENDBRANCH   1   3
BRANCH   1  10
ATOM     10  C   LIG    1       -2.827  -4.123   0.007  0.00  0.00    +0.240 C 
BRANCH  10  11
ATOM     11  C   LIG    1       -2.848  -2.593   0.015  0.00  0.00    +0.010 C 
BRANCH  11  12
ATOM     12  C   LIG    1       -1.413  -2.063   0.004  0.00  0.00    +0.020 C 
BRANCH  12  13
ATOM     13  C   LIG    1       -1.433  -0.534   0.013  0.00  0.00    +0.000 C 
BRANCH  13  15
ATOM     14  C   LIG    1       -0.019   1.526   0.010  0.00  0.00    +0.000 C 
ATOM     15  C   LIG    1        0.002  -0.004   0.002  0.00  0.00    -0.010 C 
ENDBRANCH  13  15
ENDBRANCH  12  13
ENDBRANCH  11  12
ENDBRANCH  10  11
ENDBRANCH   1  10
TORSDOF 6
ENDMDL
MODEL      998
REMARK  Name = ZINC000002296198
REMARK                            x       y       z     vdW  Elec       q    Type
REMARK                         _______ _______ _______ _____ _____    ______ ____
ROOT
ATOM      1  C   LIG    1       -0.018   1.503   0.010  0.00  0.00    +0.100 C 
ATOM      2  C   LIG    1        0.002  -0.004   0.002  0.00  0.00    -0.120 A 
ATOM      3  C   LIG    1        0.006  -0.684  -1.197  0.00  0.00    +0.060 A 
ATOM      4  C   LIG    1        0.025  -2.077  -1.202  0.00  0.00    -0.100 A 
ATOM      5  C   LIG    1        0.041  -2.784   0.009  0.00  0.00    +0.140 A 
ATOM      6  N   LIG    1        0.058  -4.137  -0.276  0.00  0.00    -0.510 N 
ATOM      7  C   LIG    1        0.054  -4.339  -1.644  0.00  0.00    +0.140 A 
ATOM      8  C   LIG    1        0.067  -5.495  -2.420  0.00  0.00    -0.020 A 
ATOM      9  C   LIG    1        0.060  -5.402  -3.795  0.00  0.00    +0.050 A 
ATOM     10  C   LIG    1        0.039  -4.163  -4.418  0.00  0.00    -0.020 A 
ATOM     11  C   LIG    1        0.026  -3.008  -3.667  0.00  0.00    +0.070 A 
ATOM     12  C   LIG    1        0.077  -5.204   0.728  0.00  0.00    +0.310 C 
ATOM     13  C   LIG    1        0.036  -2.079   1.209  0.00  0.00    -0.020 A 
ATOM     14  C   LIG    1        0.034  -3.087  -2.276  0.00  0.00    -0.110 A 
ATOM     15  C   LIG    1        0.023  -0.701   1.200  0.00  0.00    +0.050 A 
ENDROOT
TORSDOF 0
ENDMDL
MODEL      999
REMARK  Name = ZINC000002455688
REMARK                            x       y       z     vdW  Elec       q    Type
REMARK                         _______ _______ _______ _____ _____    ______ ____
ROOT
ATOM      1  C   LIG    1       -1.412  -0.526   0.013  0.00  0.00    -0.020 A 
ATOM      2  C   LIG    1       -2.116  -0.667  -1.200  0.00  0.00    +0.090 A 
ATOM      3  N   LIG    1       -1.721  -0.399  -2.459  0.00  0.00    -0.450 NA
ATOM      4  C   LIG    1       -2.557  -0.614  -3.406  0.00  0.00    +0.110 A 
ATOM      5  S   LIG    1       -4.037  -1.218  -2.809  0.00  0.00    +0.170 S 
ATOM      6 CL   LIG    1       -2.225  -0.327  -5.085  0.00  0.00    +0.030 Cl
ATOM      7  C   LIG    1       -3.427  -1.155  -1.158  0.00  0.00    -0.180 A 
ATOM      8  C   LIG    1       -4.014  -1.491   0.059  0.00  0.00    +0.060 A 
ATOM      9  C   LIG    1       -3.307  -1.345   1.231  0.00  0.00    +0.050 A 
ATOM     10  C   LIG    1       -2.005  -0.866   1.202  0.00  0.00    +0.030 A 
ENDROOT
BRANCH   1  12
ATOM     11  C   LIG    1       -0.019   1.526   0.010  0.00  0.00    +0.040 C 
ATOM     12  C   LIG    1        0.002  -0.004   0.002  0.00  0.00    +0.070 C 
ENDBRANCH   1  12
TORSDOF 1
ENDMDL
MODEL     1000
REMARK  Name = ZINC000002455715
REMARK                            x       y       z     vdW  Elec       q    Type
REMARK                         _______ _______ _______ _____ _____    ______ ____
ROOT
ATOM      1  C   LIG    1       -0.018   1.503   0.010  0.00  0.00    +0.100 C 
ATOM      2  C   LIG    1        0.002  -0.004   0.002  0.00  0.00    -0.050 A 
ATOM      3  C   LIG    1        0.006  -0.690  -1.204  0.00  0.00    +0.030 A 
ATOM      4  C   LIG    1        0.024  -2.062  -1.227  0.00  0.00    -0.020 A 
ATOM      5  C   LIG    1        0.040  -2.794  -0.023  0.00  0.00    +0.080 A 
ATOM      6  N   LIG    1        0.059  -4.127   0.173  0.00  0.00    -0.450 NA
ATOM      7  C   LIG    1        0.070  -4.553   1.381  0.00  0.00    +0.110 A 
ATOM      8  S   LIG    1        0.058  -3.264   2.499  0.00  0.00    +0.170 S 
ATOM      9 CL   LIG    1        0.095  -6.231   1.824  0.00  0.00    +0.030 Cl
ATOM     10  C   LIG    1        0.037  -2.091   1.187  0.00  0.00    -0.170 A 
ATOM     11  C   LIG    1        0.028  -2.790  -2.547  0.00  0.00    +0.110 C 
ATOM     12  C   LIG    1        0.023  -0.698   1.191  0.00  0.00    +0.050 A 
ENDROOT
TORSDOF 0
ENDMDL
MODEL     1001
REMARK  Name = ZINC000002471450
REMARK                            x       y       z     vdW  Elec       q    Type
REMARK                         _______ _______ _______ _____ _____    ______ ____
ROOT
ATOM      1  C   LIG    1       -2.827  -4.123   0.007  0.00  0.00    -0.060 C 
ATOM      2  C   LIG    1       -2.087  -4.630   1.246  0.00  0.00    +0.030 C 
ATOM      3  C   LIG    1       -2.067  -6.160   1.238  0.00  0.00    +0.040 C 
ATOM      4  C   LIG    1       -2.793  -6.673  -0.007  0.00  0.00    +0.130 C 
ATOM      5  C   LIG    1       -2.090  -6.146  -1.260  0.00  0.00    -0.010 C 
ATOM      6  C   LIG    1       -4.242  -6.182   0.009  0.00  0.00    -0.010 C 
ATOM      7  C   LIG    1       -2.111  -4.616  -1.252  0.00  0.00    +0.020 C 
ATOM      8  C   LIG    1       -4.263  -4.652   0.018  0.00  0.00    +0.020 C 
ENDROOT
BRANCH   4   9
ATOM      9  O   LIG    1       -2.773  -8.101  -0.015  0.00  0.00    -0.560 OA
ATOM     10  H   LIG    1       -3.217  -8.497  -0.778  0.00  0.00    +0.380 HD
ENDBRANCH   4   9
BRANCH   1  11
ATOM     11  C   LIG    1       -2.848  -2.593   0.015  0.00  0.00    +0.010 C 
BRANCH  11  12
ATOM     12  C   LIG    1       -1.413  -2.063   0.004  0.00  0.00    +0.000 C 
BRANCH  12  13
ATOM     13  C   LIG    1       -1.433  -0.534   0.013  0.00  0.00    +0.000 C 
BRANCH  13  15
ATOM     14  C   LIG    1       -0.019   1.526   0.010  0.00  0.00    +0.000 C 
ATOM     15  C   LIG    1        0.002  -0.004   0.002  0.00  0.00    -0.010 C 
ENDBRANCH  13  15
ENDBRANCH  12  13
ENDBRANCH  11  12
ENDBRANCH   1  11
TORSDOF 5
ENDMDL
MODEL     1002
REMARK  Name = ZINC000002455714
REMARK                            x       y       z     vdW  Elec       q    Type
REMARK                         _______ _______ _______ _____ _____    ______ ____
ROOT
ATOM      1  C   LIG    1       -0.018   1.503   0.010  0.00  0.00    +0.110 C 
ATOM      2  C   LIG    1        0.002  -0.004   0.002  0.00  0.00    -0.080 A 
ATOM      3  C   LIG    1        0.006  -0.685  -1.207  0.00  0.00    +0.050 A 
ATOM      4  C   LIG    1        0.024  -2.061  -1.224  0.00  0.00    +0.070 A 
ATOM      5  C   LIG    1        0.040  -2.774  -0.028  0.00  0.00    -0.180 A 
ATOM      6  S   LIG    1        0.064  -4.504   0.303  0.00  0.00    +0.170 S 
ATOM      7  C   LIG    1        0.068  -4.208   1.984  0.00  0.00    +0.110 A 
ATOM      8  N   LIG    1        0.052  -2.953   2.240  0.00  0.00    -0.450 NA
ATOM      9 CL   LIG    1        0.090  -5.451   3.195  0.00  0.00    +0.030 Cl
ATOM     10  C   LIG    1        0.036  -2.099   1.198  0.00  0.00    +0.090 A 
ATOM     11  C   LIG    1        0.023  -0.690   1.190  0.00  0.00    -0.020 A 
ATOM     12  C   LIG    1        0.026   0.067   2.493  0.00  0.00    +0.120 C 
ENDROOT
TORSDOF 0
ENDMDL
MODEL     1003
REMARK  Name = ZINC000002455717
REMARK                            x       y       z     vdW  Elec       q    Type
REMARK                         _______ _______ _______ _____ _____    ______ ____
ROOT
ATOM      1  C   LIG    1       -0.018   1.503   0.010  0.00  0.00    +0.110 C 
ATOM      2  C   LIG    1        0.002  -0.004   0.002  0.00  0.00    -0.030 A 
ATOM      3  C   LIG    1        0.006  -0.699  -1.224  0.00  0.00    +0.090 A 
ATOM      4  N   LIG    1       -0.008  -0.220  -2.483  0.00  0.00    -0.450 NA
ATOM      5  C   LIG    1       -0.001  -1.066  -3.444  0.00  0.00    +0.110 A 
ATOM      6  S   LIG    1        0.024  -2.671  -2.865  0.00  0.00    +0.170 S 
ATOM      7 CL   LIG    1       -0.016  -0.634  -5.126  0.00  0.00    +0.030 Cl
ATOM      8  C   LIG    1        0.025  -2.098  -1.200  0.00  0.00    -0.180 A 
ATOM      9  C   LIG    1        0.042  -2.780   0.014  0.00  0.00    -0.040 A 
ATOM     10  C   LIG    1        0.040  -2.081   1.200  0.00  0.00    +0.050 A 
ATOM     11  C   LIG    1        0.063  -4.287   0.029  0.00  0.00    +0.110 C 
ATOM     12  C   LIG    1        0.023  -0.693   1.188  0.00  0.00    +0.030 A 
ENDROOT
TORSDOF 0
ENDMDL
MODEL     1004
REMARK  Name = ZINC000002455719
REMARK                            x       y       z     vdW  Elec       q    Type
REMARK                         _______ _______ _______ _____ _____    ______ ____
ROOT
ATOM      1  C   LIG    1       -0.018   1.503   0.010  0.00  0.00    +0.100 C 
ATOM      2  C   LIG    1        0.002  -0.004   0.002  0.00  0.00    -0.060 A 
ATOM      3  C   LIG    1        0.006  -0.685  -1.207  0.00  0.00    +0.040 A 
ATOM      4  C   LIG    1        0.024  -2.061  -1.224  0.00  0.00    -0.030 A 
ATOM      5  C   LIG    1        0.040  -2.774  -0.028  0.00  0.00    -0.190 A 
ATOM      6  S   LIG    1        0.064  -4.504   0.303  0.00  0.00    +0.170 S 
ATOM      7  C   LIG    1        0.068  -4.208   1.984  0.00  0.00    +0.110 A 
ATOM      8  N   LIG    1        0.052  -2.953   2.240  0.00  0.00    -0.460 NA
ATOM      9 CL   LIG    1        0.090  -5.451   3.195  0.00  0.00    +0.030 Cl
ATOM     10  C   LIG    1        0.036  -2.099   1.198  0.00  0.00    +0.100 A 
ATOM     11  C   LIG    1        0.029  -2.798  -2.539  0.00  0.00    +0.110 C 
ATOM     12  C   LIG    1        0.023  -0.690   1.190  0.00  0.00    +0.070 A 
ENDROOT
TORSDOF 0
ENDMDL
MODEL     1005
REMARK  Name = ZINC000002507459
REMARK                            x       y       z     vdW  Elec       q    Type
REMARK                         _______ _______ _______ _____ _____    ______ ____
ROOT
ATOM      1  C   LIG    1       -0.018   1.503   0.010  0.00  0.00    +0.110 C 
ATOM      2  C   LIG    1        0.002  -0.004   0.002  0.00  0.00    -0.060 A 
ATOM      3  C   LIG    1        0.006  -0.688  -1.199  0.00  0.00    +0.030 A 
ATOM      4  C   LIG    1        0.025  -2.071  -1.207  0.00  0.00    -0.060 A 
ATOM      5  C   LIG    1        0.041  -2.770  -0.013  0.00  0.00    -0.040 A 
ATOM      6  C   LIG    1        0.037  -2.085   1.189  0.00  0.00    -0.060 A 
ATOM      7  C   LIG    1        0.054  -2.846   2.489  0.00  0.00    +0.110 C 
ATOM      8 CL   LIG    1        0.065  -4.505  -0.024  0.00  0.00    -0.050 Cl
ATOM      9  C   LIG    1        0.029  -2.816  -2.517  0.00  0.00    +0.110 C 
ATOM     10  C   LIG    1        0.023  -0.702   1.196  0.00  0.00    -0.040 A 
ATOM     11 CL   LIG    1        0.019   0.158   2.705  0.00  0.00    -0.050 Cl
ENDROOT
TORSDOF 0
ENDMDL
MODEL     1006
REMARK  Name = ZINC000002512478
REMARK                            x       y       z     vdW  Elec       q    Type
REMARK                         _______ _______ _______ _____ _____    ______ ____
ROOT
ATOM      1  C   LIG    1        1.524  -4.077   2.464  0.00  0.00    +0.080 C 
ENDROOT
BRANCH   1   2
ATOM      2  C   LIG    1        2.252  -4.577   3.685  0.00  0.00    -0.100 A 
ATOM      3  C   LIG    1        3.569  -4.793   3.697  0.00  0.00    -0.050 A 
ATOM      4  S   LIG    1        4.058  -5.368   5.285  0.00  0.00    +0.090 S 
ATOM      5  C   LIG    1        2.399  -5.280   5.861  0.00  0.00    -0.050 A 
ATOM      6  C   LIG    1        1.608  -4.840   4.881  0.00  0.00    +0.010 A 
ENDBRANCH   1   2
BRANCH   1   7
ATOM      7  C   LIG    1        1.503  -2.548   2.473  0.00  0.00    +0.010 C 
BRANCH   7   8
ATOM      8  C   LIG    1        0.763  -2.041   1.233  0.00  0.00    +0.000 C 
BRANCH   8   9
ATOM      9  C   LIG    1        0.742  -0.511   1.242  0.00  0.00    +0.000 C 
BRANCH   9  11
ATOM     10  C   LIG    1       -0.019   1.526   0.010  0.00  0.00    +0.000 C 
ATOM     11  C   LIG    1        0.002  -0.004   0.002  0.00  0.00    -0.010 C 
ENDBRANCH   9  11
ENDBRANCH   8   9
ENDBRANCH   7   8
ENDBRANCH   1   7
TORSDOF 5
ENDMDL
MODEL     1007
REMARK  Name = ZINC000002510249
REMARK                            x       y       z     vdW  Elec       q    Type
REMARK                         _______ _______ _______ _____ _____    ______ ____
ROOT
ATOM      1  C   LIG    1       -0.018   1.503   0.010  0.00  0.00    +0.110 C 
ATOM      2  C   LIG    1        0.002  -0.004   0.002  0.00  0.00    -0.090 A 
ATOM      3  C   LIG    1        0.007  -0.707  -1.113  0.00  0.00    -0.030 A 
ATOM      4  S   LIG    1        0.032  -2.429  -0.784  0.00  0.00    +0.080 S 
ATOM      5  C   LIG    1        0.037  -2.165   0.955  0.00  0.00    -0.140 A 
ATOM      6  C   LIG    1        0.055  -3.078   2.014  0.00  0.00    +0.050 A 
ATOM      7  C   LIG    1        0.055  -2.630   3.314  0.00  0.00    +0.030 A 
ATOM      8  C   LIG    1        0.037  -1.268   3.583  0.00  0.00    -0.080 A 
ATOM      9  C   LIG    1        0.019  -0.362   2.567  0.00  0.00    +0.050 A 
ATOM     10  C   LIG    1        0.037  -0.789   5.011  0.00  0.00    +0.090 C 
ATOM     11  C   LIG    1        0.024  -0.793   1.223  0.00  0.00    -0.070 A 
ENDROOT
TORSDOF 0
ENDMDL
MODEL     1008
REMARK  Name = ZINC000002514237
REMARK                            x       y       z     vdW  Elec       q    Type
REMARK                         _______ _______ _______ _____ _____    ______ ____
ROOT
ATOM      1  C   LIG    1       -0.741   1.603   0.252  0.00  0.00    +0.090 C 
ATOM      2  C   LIG    1       -0.564   0.109   0.167  0.00  0.00    -0.110 A 
ATOM      3  C   LIG    1       -0.857  -0.555  -1.011  0.00  0.00    +0.050 A 
ATOM      4  C   LIG    1       -0.698  -1.927  -1.099  0.00  0.00    +0.000 A 
ATOM      5  C   LIG    1       -0.246  -2.643  -0.010  0.00  0.00    -0.030 A 
ATOM      6  C   LIG    1        0.052  -1.980   1.184  0.00  0.00    -0.170 A 
ATOM      7  C   LIG    1       -0.074  -4.137  -0.108  0.00  0.00    +0.110 C 
ATOM      8  C   LIG    1       -0.106  -0.592   1.263  0.00  0.00    +0.070 A 
ENDROOT
BRANCH   6   9
ATOM      9  C   LIG    1        0.535  -2.736   2.350  0.00  0.00    +0.400 C 
ATOM     10  O   LIG    1        0.774  -3.921   2.248  0.00  0.00    -0.440 OA
BRANCH   9  11
ATOM     11  C   LIG    1        0.731  -2.039   3.672  0.00  0.00    -0.110 C 
ATOM     12  C   LIG    1       -0.574  -1.360   4.090  0.00  0.00    +0.050 C 
ATOM     13  C   LIG    1        1.833  -0.987   3.534  0.00  0.00    +0.050 C 
ATOM     14  C   LIG    1        1.135  -3.064   4.734  0.00  0.00    +0.050 C 
ENDBRANCH   9  11
ENDBRANCH   6   9
TORSDOF 2
ENDMDL
MODEL     1009
REMARK  Name = ZINC000002514236
REMARK                            x       y       z     vdW  Elec       q    Type
REMARK                         _______ _______ _______ _____ _____    ______ ____
ROOT
ATOM      1  C   LIG    1       -0.954   1.272  -0.152  0.00  0.00    +0.090 C 
ATOM      2  C   LIG    1       -0.541  -0.168   0.011  0.00  0.00    -0.100 A 
ATOM      3  C   LIG    1       -0.507  -1.006  -1.090  0.00  0.00    +0.050 A 
ATOM      4  C   LIG    1       -0.129  -2.330  -0.950  0.00  0.00    -0.010 A 
ATOM      5  C   LIG    1        0.218  -2.824   0.289  0.00  0.00    +0.050 A 
ATOM      6  C   LIG    1        0.187  -1.984   1.407  0.00  0.00    -0.170 A 
ATOM      7  C   LIG    1       -0.191  -0.646   1.257  0.00  0.00    -0.030 A 
ATOM      8  C   LIG    1       -0.228   0.268   2.454  0.00  0.00    +0.110 C 
ENDROOT
BRANCH   6   9
ATOM      9  C   LIG    1        0.556  -2.503   2.734  0.00  0.00    +0.400 C 
ATOM     10  O   LIG    1        0.652  -1.746   3.676  0.00  0.00    -0.440 OA
BRANCH   9  11
ATOM     11  C   LIG    1        0.816  -3.976   2.921  0.00  0.00    -0.110 C 
ATOM     12  C   LIG    1        2.070  -4.376   2.141  0.00  0.00    +0.050 C 
ATOM     13  C   LIG    1       -0.382  -4.775   2.404  0.00  0.00    +0.050 C 
ATOM     14  C   LIG    1        1.023  -4.272   4.407  0.00  0.00    +0.050 C 
ENDBRANCH   9  11
ENDBRANCH   6   9
TORSDOF 2
ENDMDL
MODEL     1010
REMARK  Name = ZINC000002514133
REMARK                            x       y       z     vdW  Elec       q    Type
REMARK                         _______ _______ _______ _____ _____    ______ ____
ROOT
ATOM      1  C   LIG    1       -0.018   1.503   0.010  0.00  0.00    +0.090 C 
ATOM      2  C   LIG    1        0.002  -0.004   0.002  0.00  0.00    -0.100 A 
ATOM      3  C   LIG    1        0.006  -0.688  -1.201  0.00  0.00    +0.040 A 
ATOM      4  C   LIG    1        0.025  -2.072  -1.219  0.00  0.00    +0.000 A 
ATOM      5  C   LIG    1        0.040  -2.780  -0.037  0.00  0.00    +0.050 A 
ATOM      6  C   LIG    1        0.036  -2.096   1.184  0.00  0.00    -0.170 A 
ATOM      7  C   LIG    1        0.023  -0.698   1.194  0.00  0.00    +0.070 A 
ENDROOT
BRANCH   6   8
ATOM      8  C   LIG    1        0.053  -2.845   2.451  0.00  0.00    +0.400 C 
ATOM      9  O   LIG    1        0.050  -2.249   3.507  0.00  0.00    -0.440 OA
BRANCH   8  10
ATOM     10  C   LIG    1        0.073  -4.352   2.436  0.00  0.00    +0.040 C 
BRANCH  10  11
ATOM     11  C   LIG    1        0.088  -4.876   3.873  0.00  0.00    -0.060 C 
ATOM     12  C   LIG    1        1.334  -4.356   4.593  0.00  0.00    +0.030 C 
ATOM     13  C   LIG    1        0.108  -6.406   3.857  0.00  0.00    +0.040 C 
ATOM     14  C   LIG    1       -1.165  -4.390   4.605  0.00  0.00    +0.030 C 
ENDBRANCH  10  11
ENDBRANCH   8  10
ENDBRANCH   6   8
TORSDOF 3
ENDMDL
MODEL     1011
REMARK  Name = ZINC000002514174
REMARK                            x       y       z     vdW  Elec       q    Type
REMARK                         _______ _______ _______ _____ _____    ______ ____
ROOT
ATOM      1  C   LIG    1        0.830  -1.962  -1.193  0.00  0.00    +0.410 C 
ATOM      2  O   LIG    1        0.289  -2.589  -0.308  0.00  0.00    -0.440 OA
ENDROOT
BRANCH   1   3
ATOM      3  C   LIG    1        1.471  -2.672  -2.312  0.00  0.00    -0.170 A 
ATOM      4  C   LIG    1        1.997  -1.954  -3.390  0.00  0.00    +0.070 A 
ATOM      5  C   LIG    1        2.596  -2.627  -4.435  0.00  0.00    -0.010 A 
ATOM      6  C   LIG    1        2.676  -4.008  -4.418  0.00  0.00    +0.050 A 
ATOM      7  C   LIG    1        2.157  -4.726  -3.354  0.00  0.00    -0.010 A 
ATOM      8  C   LIG    1        1.561  -4.068  -2.300  0.00  0.00    -0.020 A 
ATOM      9  C   LIG    1        0.998  -4.851  -1.142  0.00  0.00    +0.100 C 
ENDBRANCH   1   3
BRANCH   1  10
ATOM     10  C   LIG    1        0.847  -0.456  -1.148  0.00  0.00    -0.100 C 
ATOM     11  C   LIG    1        2.292   0.041  -1.224  0.00  0.00    +0.050 C 
ATOM     12  C   LIG    1        0.054   0.099  -2.333  0.00  0.00    +0.050 C 
BRANCH  10  14
ATOM     13  C   LIG    1        0.229   1.552   0.205  0.00  0.00    +0.020 C 
ATOM     14  C   LIG    1        0.212   0.022   0.159  0.00  0.00    +0.030 C 
ENDBRANCH  10  14
ENDBRANCH   1  10
TORSDOF 3
ENDMDL
MODEL     1012
REMARK  Name = ZINC000002514176
REMARK                            x       y       z     vdW  Elec       q    Type
REMARK                         _______ _______ _______ _____ _____    ______ ____
ROOT
ATOM      1  C   LIG    1        0.743  -1.992   1.334  0.00  0.00    +0.410 C 
ATOM      2  O   LIG    1        0.150  -2.666   0.518  0.00  0.00    -0.450 OA
ENDROOT
BRANCH   1   3
ATOM      3  C   LIG    1        1.502  -2.642   2.414  0.00  0.00    -0.170 A 
ATOM      4  C   LIG    1        2.293  -1.876   3.276  0.00  0.00    +0.070 A 
ATOM      5  C   LIG    1        3.002  -2.493   4.286  0.00  0.00    -0.010 A 
ATOM      6  C   LIG    1        2.932  -3.866   4.446  0.00  0.00    -0.050 A 
ATOM      7  C   LIG    1        2.152  -4.630   3.597  0.00  0.00    +0.000 A 
ATOM      8  C   LIG    1        3.710  -4.531   5.552  0.00  0.00    +0.100 C 
ATOM      9  C   LIG    1        1.433  -4.028   2.586  0.00  0.00    +0.070 A 
ENDBRANCH   1   3
BRANCH   1  10
ATOM     10  C   LIG    1        0.701  -0.488   1.241  0.00  0.00    -0.100 C 
ATOM     11  C   LIG    1        0.210   0.091   2.570  0.00  0.00    +0.050 C 
ATOM     12  C   LIG    1        2.104   0.043   0.941  0.00  0.00    +0.050 C 
BRANCH  10  14
ATOM     13  C   LIG    1       -0.295   1.454   0.026  0.00  0.00    +0.020 C 
ATOM     14  C   LIG    1       -0.253  -0.073   0.120  0.00  0.00    +0.030 C 
ENDBRANCH  10  14
ENDBRANCH   1  10
TORSDOF 3
ENDMDL
MODEL     1013
REMARK  Name = ZINC000002514239
REMARK                            x       y       z     vdW  Elec       q    Type
REMARK                         _______ _______ _______ _____ _____    ______ ____
ROOT
ATOM      1  C   LIG    1       -0.012   1.502   0.015  0.00  0.00    +0.090 C 
ATOM      2  C   LIG    1        0.001  -0.005   0.006  0.00  0.00    -0.050 A 
ATOM      3  C   LIG    1        0.047  -0.686  -1.197  0.00  0.00    +0.000 A 
ATOM      4  C   LIG    1        0.059  -2.065  -1.214  0.00  0.00    +0.060 A 
ATOM      5  C   LIG    1        0.024  -2.775  -0.010  0.00  0.00    -0.170 A 
ATOM      6  C   LIG    1       -0.022  -2.080   1.203  0.00  0.00    +0.070 A 
ATOM      7  C   LIG    1       -0.028  -0.701   1.203  0.00  0.00    -0.100 A 
ATOM      8  C   LIG    1       -0.078   0.050   2.508  0.00  0.00    +0.090 C 
ENDROOT
BRANCH   5   9
ATOM      9  C   LIG    1        0.037  -4.247  -0.019  0.00  0.00    +0.410 C 
ATOM     10  O   LIG    1        0.117  -4.859   1.025  0.00  0.00    -0.450 OA
BRANCH   9  11
ATOM     11  C   LIG    1       -0.051  -4.993  -1.325  0.00  0.00    -0.110 C 
ATOM     12  C   LIG    1        1.196  -4.703  -2.163  0.00  0.00    +0.050 C 
ATOM     13  C   LIG    1       -1.296  -4.539  -2.090  0.00  0.00    +0.050 C 
ATOM     14  C   LIG    1       -0.141  -6.495  -1.049  0.00  0.00    +0.050 C 
ENDBRANCH   9  11
ENDBRANCH   5   9
TORSDOF 2
ENDMDL
MODEL     1014
REMARK  Name = ZINC000002514175
REMARK                            x       y       z     vdW  Elec       q    Type
REMARK                         _______ _______ _______ _____ _____    ______ ____
ROOT
ATOM      1  C   LIG    1       -1.490  -2.014  -0.062  0.00  0.00    +0.410 C 
ATOM      2  O   LIG    1       -0.478  -2.671  -0.181  0.00  0.00    -0.450 OA
ENDROOT
BRANCH   1   3
ATOM      3  C   LIG    1       -2.795  -2.687   0.042  0.00  0.00    -0.160 A 
ATOM      4  C   LIG    1       -3.949  -1.945   0.311  0.00  0.00    +0.060 A 
ATOM      5  C   LIG    1       -5.168  -2.583   0.408  0.00  0.00    +0.000 A 
ATOM      6  C   LIG    1       -5.251  -3.954   0.240  0.00  0.00    +0.040 A 
ATOM      7  C   LIG    1       -4.113  -4.696  -0.026  0.00  0.00    -0.100 A 
ATOM      8  C   LIG    1       -4.215  -6.188  -0.207  0.00  0.00    +0.090 C 
ATOM      9  C   LIG    1       -2.888  -4.072  -0.132  0.00  0.00    +0.070 A 
ENDBRANCH   1   3
BRANCH   1  10
ATOM     10  C   LIG    1       -1.413  -0.510  -0.022  0.00  0.00    -0.100 C 
ATOM     11  C   LIG    1       -2.327   0.077  -1.100  0.00  0.00    +0.050 C 
ATOM     12  C   LIG    1       -1.862  -0.013   1.354  0.00  0.00    +0.050 C 
BRANCH  10  14
ATOM     13  C   LIG    1        0.107   1.461  -0.238  0.00  0.00    +0.020 C 
ATOM     14  C   LIG    1        0.029  -0.066  -0.279  0.00  0.00    +0.030 C 
ENDBRANCH  10  14
ENDBRANCH   1  10
TORSDOF 3
ENDMDL
MODEL     1015
REMARK  Name = ZINC000002514240
REMARK                            x       y       z     vdW  Elec       q    Type
REMARK                         _______ _______ _______ _____ _____    ______ ____
ROOT
ATOM      1  C   LIG    1       -0.124   1.496   0.009  0.00  0.00    +0.090 C 
ATOM      2  C   LIG    1       -0.046  -0.009   0.001  0.00  0.00    -0.100 A 
ATOM      3  C   LIG    1        0.002  -0.692  -1.202  0.00  0.00    +0.040 A 
ATOM      4  C   LIG    1        0.074  -2.074  -1.220  0.00  0.00    -0.090 A 
ATOM      5  C   LIG    1        0.099  -2.782  -0.037  0.00  0.00    +0.060 A 
ATOM      6  C   LIG    1        0.052  -2.099   1.183  0.00  0.00    -0.160 A 
ATOM      7  C   LIG    1        0.125  -2.807  -2.536  0.00  0.00    +0.090 C 
ATOM      8  C   LIG    1       -0.016  -0.703   1.192  0.00  0.00    +0.060 A 
ENDROOT
BRANCH   6   9
ATOM      9  C   LIG    1        0.079  -2.847   2.450  0.00  0.00    +0.410 C 
ATOM     10  O   LIG    1        0.031  -4.059   2.440  0.00  0.00    -0.450 OA
BRANCH   9  11
ATOM     11  C   LIG    1        0.165  -2.107   3.760  0.00  0.00    -0.110 C 
ATOM     12  C   LIG    1       -1.102  -1.272   3.958  0.00  0.00    +0.050 C 
ATOM     13  C   LIG    1        1.386  -1.186   3.746  0.00  0.00    +0.050 C 
ATOM     14  C   LIG    1        0.298  -3.112   4.906  0.00  0.00    +0.050 C 
ENDBRANCH   9  11
ENDBRANCH   6   9
TORSDOF 2
ENDMDL
MODEL     1016
REMARK  Name = ZINC000002528264
REMARK                            x       y       z     vdW  Elec       q    Type
REMARK                         _______ _______ _______ _____ _____    ______ ____
ROOT
ATOM      1  C   LIG    1        0.707  -0.490  -1.238  0.00  0.00    -0.080 A 
ATOM      2  C   LIG    1       -0.010  -0.718  -2.397  0.00  0.00    +0.000 A 
ATOM      3  C   LIG    1        0.637  -1.164  -3.534  0.00  0.00    +0.000 A 
ATOM      4  C   LIG    1        2.002  -1.381  -3.513  0.00  0.00    +0.000 A 
ATOM      5  C   LIG    1        2.720  -1.152  -2.354  0.00  0.00    -0.070 A 
ATOM      6  C   LIG    1        2.074  -0.702  -1.218  0.00  0.00    +0.010 A 
ENDROOT
BRANCH   5   7
ATOM      7  C   LIG    1        4.208  -1.389  -2.330  0.00  0.00    -0.030 C 
ATOM      8  C   LIG    1        4.539  -2.448  -1.276  0.00  0.00    +0.040 C 
ATOM      9  C   LIG    1        4.927  -0.083  -1.985  0.00  0.00    +0.040 C 
ATOM     10  C   LIG    1        4.668  -1.876  -3.705  0.00  0.00    +0.030 C 
ENDBRANCH   5   7
BRANCH   1  12
ATOM     11  C   LIG    1       -0.019   1.526   0.010  0.00  0.00    +0.030 C 
ATOM     12  C   LIG    1        0.002  -0.004   0.002  0.00  0.00    +0.050 C 
ENDBRANCH   1  12
TORSDOF 2
ENDMDL
MODEL     1017
REMARK  Name = ZINC000002529007
REMARK                            x       y       z     vdW  Elec       q    Type
REMARK                         _______ _______ _______ _____ _____    ______ ____
ROOT
ATOM      1  C   LIG    1        0.062  -4.256  -0.021  0.00  0.00    +0.000 A 
ATOM      2  C   LIG    1        0.071  -4.961   1.181  0.00  0.00    -0.050 A 
ATOM      3  C   LIG    1        0.091  -6.342   1.172  0.00  0.00    +0.050 A 
ATOM      4  C   LIG    1        0.101  -7.029  -0.027  0.00  0.00    -0.080 A 
ATOM      5  C   LIG    1        0.091  -6.334  -1.231  0.00  0.00    +0.220 A 
ATOM      6  C   LIG    1        0.066  -4.947  -1.230  0.00  0.00    -0.070 A 
ENDROOT
BRANCH   1  11
ATOM      7  C   LIG    1       -0.018   1.503   0.010  0.00  0.00    +0.090 C 
ATOM      8  C   LIG    1        0.002  -0.004   0.002  0.00  0.00    -0.080 A 
ATOM      9  C   LIG    1        0.006  -0.686  -1.201  0.00  0.00    +0.000 A 
ATOM     10  C   LIG    1        0.025  -2.067  -1.214  0.00  0.00    +0.010 A 
ATOM     11  C   LIG    1        0.041  -2.772  -0.013  0.00  0.00    -0.050 A 
ATOM     12  C   LIG    1        0.037  -2.079   1.196  0.00  0.00    +0.030 A 
ATOM     13  C   LIG    1        0.023  -0.700   1.198  0.00  0.00    -0.090 A 
ATOM     14  C   LIG    1        0.019   0.051   2.505  0.00  0.00    +0.090 C 
ENDBRANCH   1  11
BRANCH   5  15
ATOM     15  N   LIG    1        0.102  -7.032  -2.441  0.00  0.00    -0.880 N 
ATOM     16  H   LIG    1        0.095  -6.547  -3.281  0.00  0.00    +0.400 HD
ATOM     17  H   LIG    1        0.116  -8.002  -2.441  0.00  0.00    +0.400 HD
ENDBRANCH   5  15
TORSDOF 2
ENDMDL
MODEL     1018
REMARK  Name = ZINC000002539433
REMARK                            x       y       z     vdW  Elec       q    Type
REMARK                         _______ _______ _______ _____ _____    ______ ____
ROOT
ATOM      1  C   LIG    1        0.718  -0.497  -1.257  0.00  0.00    +0.060 C 
ATOM      2  C   LIG    1        2.195  -0.181  -1.179  0.00  0.00    -0.140 C 
ATOM      3  C   LIG    1        2.839  -1.341  -1.220  0.00  0.00    -0.110 C 
ATOM      4  C   LIG    1        1.892  -2.454  -1.323  0.00  0.00    -0.100 C 
ATOM      5  C   LIG    1        2.282  -3.909  -1.391  0.00  0.00    +0.100 C 
ATOM      6  C   LIG    1        4.337  -1.493  -1.168  0.00  0.00    +0.090 C 
ATOM      7  C   LIG    1        2.817   1.188  -1.075  0.00  0.00    +0.120 C 
ATOM      8  C   LIG    1        0.643  -2.005  -1.347  0.00  0.00    -0.140 C 
ATOM      9  C   LIG    1       -0.609  -2.838  -1.446  0.00  0.00    +0.120 C 
ENDROOT
BRANCH   1  11
ATOM     10  C   LIG    1       -0.019   1.526   0.010  0.00  0.00    +0.010 C 
ATOM     11  C   LIG    1        0.002  -0.004   0.002  0.00  0.00    +0.020 C 
ENDBRANCH   1  11
TORSDOF 1
ENDMDL
MODEL     1019
REMARK  Name = ZINC000002546115
REMARK                            x       y       z     vdW  Elec       q    Type
REMARK                         _______ _______ _______ _____ _____    ______ ____
ROOT
ATOM      1  C   LIG    1       -2.685   1.091   1.405  0.00  0.00    +0.220 A 
ATOM      2  C   LIG    1       -2.676   1.983   0.340  0.00  0.00    -0.070 A 
ATOM      3  C   LIG    1       -3.274   3.221   0.474  0.00  0.00    +0.050 A 
ATOM      4  C   LIG    1       -3.881   3.572   1.666  0.00  0.00    -0.150 A 
ATOM      5  C   LIG    1       -3.892   2.686   2.727  0.00  0.00    -0.040 A 
ATOM      6  C   LIG    1       -4.555   3.073   4.024  0.00  0.00    +0.080 C 
ATOM      7  C   LIG    1       -4.533   4.924   1.808  0.00  0.00    +0.070 C 
ATOM      8  C   LIG    1       -3.300   1.445   2.599  0.00  0.00    -0.080 A 
ENDROOT
BRANCH   1   9
ATOM      9  N   LIG    1       -2.082  -0.162   1.273  0.00  0.00    -0.740 N 
ATOM     10  H   LIG    1       -2.092  -0.785   2.016  0.00  0.00    +0.400 HD
BRANCH   9  11
ATOM     11  C   LIG    1       -1.433  -0.534   0.013  0.00  0.00    +0.230 C 
BRANCH  11  13
ATOM     12  C   LIG    1       -0.019   1.526   0.010  0.00  0.00    +0.020 C 
ATOM     13  C   LIG    1        0.002  -0.004   0.002  0.00  0.00    -0.010 C 
ENDBRANCH  11  13
BRANCH  11  14
ATOM     14  C   LIG    1       -1.416  -2.058  -0.121  0.00  0.00    +0.020 C 
ATOM     15  C   LIG    1       -2.850  -2.576  -0.236  0.00  0.00    +0.020 C 
ENDBRANCH  11  14
ENDBRANCH   9  11
ENDBRANCH   1   9
TORSDOF 4
ENDMDL
MODEL     1020
REMARK  Name = ZINC000002559146
REMARK                            x       y       z     vdW  Elec       q    Type
REMARK                         _______ _______ _______ _____ _____    ______ ____
ROOT
ATOM      1  C   LIG    1        0.060  -4.256  -0.021  0.00  0.00    -0.050 A 
ATOM      2  C   LIG    1        0.070  -4.947  -1.231  0.00  0.00    +0.030 A 
ATOM      3  C   LIG    1        0.090  -6.326  -1.236  0.00  0.00    -0.010 A 
ATOM      4  C   LIG    1        0.100  -7.026  -0.037  0.00  0.00    +0.100 A 
ATOM      5  C   LIG    1        0.090  -6.339   1.170  0.00  0.00    -0.110 A 
ATOM      6  C   LIG    1        0.101  -7.102   2.470  0.00  0.00    +0.100 C 
ATOM      7  C   LIG    1        0.075  -4.961   1.181  0.00  0.00    +0.030 A 
ENDROOT
BRANCH   1  12
ATOM      8  C   LIG    1       -0.018   1.503   0.010  0.00  0.00    +0.090 C 
ATOM      9  C   LIG    1        0.002  -0.004   0.002  0.00  0.00    -0.080 A 
ATOM     10  C   LIG    1        0.006  -0.686  -1.201  0.00  0.00    +0.000 A 
ATOM     11  C   LIG    1        0.024  -2.067  -1.215  0.00  0.00    +0.020 A 
ATOM     12  C   LIG    1        0.040  -2.772  -0.013  0.00  0.00    -0.050 A 
ATOM     13  C   LIG    1        0.036  -2.080   1.196  0.00  0.00    +0.020 A 
ATOM     14  C   LIG    1        0.023  -0.700   1.198  0.00  0.00    +0.000 A 
ENDBRANCH   1  12
BRANCH   4  15
ATOM     15  O   LIG    1        0.119  -8.384  -0.044  0.00  0.00    -0.500 OA
ATOM     16  H   LIG    1        1.008  -8.764  -0.046  0.00  0.00    +0.390 HD
ENDBRANCH   4  15
TORSDOF 2
ENDMDL
MODEL     1021
REMARK  Name = ZINC000002557579
REMARK                            x       y       z     vdW  Elec       q    Type
REMARK                         _______ _______ _______ _____ _____    ______ ____
ROOT
ATOM      1  C   LIG    1       -0.018   1.503   0.010  0.00  0.00    +0.110 C 
ATOM      2  C   LIG    1        0.002  -0.004   0.002  0.00  0.00    -0.100 A 
ATOM      3  C   LIG    1        0.007  -0.715  -1.129  0.00  0.00    -0.050 A 
ATOM      4  S   LIG    1        0.032  -2.433  -0.752  0.00  0.00    +0.120 S 
ATOM      5  C   LIG    1        0.035  -2.085   0.973  0.00  0.00    -0.140 A 
ATOM      6  C   LIG    1        0.023  -0.751   1.162  0.00  0.00    +0.010 A 
ENDROOT
BRANCH   5   7
ATOM      7  C   LIG    1        0.053  -3.100   2.047  0.00  0.00    -0.020 A 
ATOM      8  C   LIG    1        0.048  -2.703   3.386  0.00  0.00    +0.030 A 
ATOM      9  C   LIG    1        0.065  -3.655   4.384  0.00  0.00    +0.020 A 
ATOM     10  C   LIG    1        0.087  -5.000   4.061  0.00  0.00    +0.010 A 
ATOM     11  C   LIG    1        0.093  -5.400   2.737  0.00  0.00    +0.020 A 
ATOM     12  C   LIG    1        0.070  -4.459   1.729  0.00  0.00    +0.010 A 
ENDBRANCH   5   7
TORSDOF 1
ENDMDL
MODEL     1022
REMARK  Name = ZINC000002559594
REMARK                            x       y       z     vdW  Elec       q    Type
REMARK                         _______ _______ _______ _____ _____    ______ ____
ROOT
ATOM      1  C   LIG    1        2.181  -4.537  -3.772  0.00  0.00    -0.100 A 
ATOM      2  C   LIG    1        1.452  -4.864  -4.899  0.00  0.00    +0.010 A 
ATOM      3  C   LIG    1        2.099  -5.310  -6.037  0.00  0.00    +0.000 A 
ATOM      4  C   LIG    1        3.476  -5.430  -6.050  0.00  0.00    +0.020 A 
ATOM      5  C   LIG    1        4.210  -5.104  -4.926  0.00  0.00    -0.110 A 
ATOM      6  C   LIG    1        5.711  -5.234  -4.941  0.00  0.00    +0.100 C 
ATOM      7  C   LIG    1        3.564  -4.651  -3.785  0.00  0.00    +0.100 A 
ENDROOT
BRANCH   7   8
ATOM      8  O   LIG    1        4.284  -4.329  -2.678  0.00  0.00    -0.490 OA
ATOM      9  H   LIG    1        4.565  -3.404  -2.646  0.00  0.00    +0.390 HD
ENDBRANCH   7   8
BRANCH   1  10
ATOM     10  C   LIG    1        1.476  -4.051  -2.532  0.00  0.00    +0.070 C 
BRANCH  10  11
ATOM     11  C   LIG    1        1.455  -2.521  -2.524  0.00  0.00    +0.010 C 
BRANCH  11  12
ATOM     12  C   LIG    1        0.739  -2.027  -1.265  0.00  0.00    +0.000 C 
BRANCH  12  13
ATOM     13  C   LIG    1        0.718  -0.497  -1.257  0.00  0.00    +0.000 C 
BRANCH  13  15
ATOM     14  C   LIG    1       -0.019   1.526   0.010  0.00  0.00    +0.000 C 
ATOM     15  C   LIG    1        0.002  -0.004   0.002  0.00  0.00    -0.010 C 
ENDBRANCH  13  15
ENDBRANCH  12  13
ENDBRANCH  11  12
ENDBRANCH  10  11
ENDBRANCH   1  10
TORSDOF 6
ENDMDL
MODEL     1023
REMARK  Name = ZINC000002562370
REMARK                            x       y       z     vdW  Elec       q    Type
REMARK                         _______ _______ _______ _____ _____    ______ ____
ROOT
ATOM      1  C   LIG    1        0.655  -2.034  -1.350  0.00  0.00    -0.060 C 
ATOM      2  C   LIG    1       -0.689  -2.746  -1.512  0.00  0.00    +0.040 C 
ATOM      3  C   LIG    1       -1.480  -2.086  -2.646  0.00  0.00    +0.020 C 
ATOM      4  C   LIG    1       -0.623  -2.082  -3.892  0.00  0.00    +0.360 C 
ATOM      5  C   LIG    1        0.782  -1.529  -3.794  0.00  0.00    +0.020 C 
ATOM      6  O   LIG    1       -1.049  -2.508  -4.939  0.00  0.00    -0.460 OA
ATOM      7  C   LIG    1        1.492  -2.209  -2.618  0.00  0.00    +0.040 C 
ENDROOT
BRANCH   1   8
ATOM      8  C   LIG    1        0.414  -0.543  -1.101  0.00  0.00    +0.030 C 
BRANCH   8  10
ATOM      9  C   LIG    1        1.519   1.659  -0.686  0.00  0.00    +0.000 C 
ATOM     10  C   LIG    1        1.754   0.159  -0.870  0.00  0.00    -0.010 C 
ENDBRANCH   8  10
ENDBRANCH   1   8
BRANCH   1  11
ATOM     11  C   LIG    1        1.406  -2.633  -0.159  0.00  0.00    +0.020 C 
BRANCH  11  12
ATOM     12  C   LIG    1        1.537  -4.145  -0.347  0.00  0.00    -0.010 C 
ATOM     13  C   LIG    1        2.317  -4.740   0.827  0.00  0.00    +0.000 C 
ENDBRANCH  11  12
ENDBRANCH   1  11
TORSDOF 4
ENDMDL
MODEL     1024
REMARK  Name = ZINC000002564041
REMARK                            x       y       z     vdW  Elec       q    Type
REMARK                         _______ _______ _______ _____ _____    ______ ____
ROOT
ATOM      1  C   LIG    1       -1.438  -0.592   0.065  0.00  0.00    -0.010 C 
ENDROOT
BRANCH   1   3
ATOM      2  C   LIG    1       -0.139   1.519  -0.250  0.00  0.00    +0.000 C 
ATOM      3  C   LIG    1       -0.034   0.010  -0.018  0.00  0.00    +0.000 C 
ENDBRANCH   1   3
BRANCH   1   4
ATOM      4  C   LIG    1       -2.143  -0.429  -1.283  0.00  0.00    +0.000 C 
ATOM      5  C   LIG    1       -1.395  -1.230  -2.350  0.00  0.00    +0.000 C 
ENDBRANCH   1   4
BRANCH   1   6
ATOM      6  C   LIG    1       -1.335  -2.079   0.410  0.00  0.00    -0.020 C 
BRANCH   6   7
ATOM      7  C   LIG    1       -2.739  -2.681   0.493  0.00  0.00    -0.010 C 
ATOM      8  C   LIG    1       -2.634  -4.193   0.702  0.00  0.00    +0.000 C 
ENDBRANCH   6   7
BRANCH   6   9
ATOM      9  C   LIG    1       -0.630  -2.242   1.758  0.00  0.00    +0.000 C 
ATOM     10  C   LIG    1       -1.477  -1.600   2.858  0.00  0.00    +0.010 C 
ENDBRANCH   6   9
ENDBRANCH   1   6
TORSDOF 5
ENDMDL
MODEL     1025
REMARK  Name = ZINC000002569935
REMARK                            x       y       z     vdW  Elec       q    Type
REMARK                         _______ _______ _______ _____ _____    ______ ____
ROOT
ATOM      1  C   LIG    1       -0.018   1.503   0.010  0.00  0.00    +0.080 C 
ATOM      2  C   LIG    1        0.002  -0.004   0.002  0.00  0.00    -0.050 A 
ATOM      3  C   LIG    1        0.006  -0.690  -1.199  0.00  0.00    -0.060 A 
ATOM      4  C   LIG    1        0.023  -2.071  -1.209  0.00  0.00    +0.050 A 
ATOM      5  C   LIG    1        0.037  -2.779  -0.019  0.00  0.00    -0.150 A 
ATOM      6  C   LIG    1        0.037  -2.092   1.185  0.00  0.00    +0.220 A 
ATOM      7  N   LIG    1        0.061  -2.780   2.403  0.00  0.00    -0.740 N 
ATOM      8  H   LIG    1        0.258  -2.312   3.230  0.00  0.00    +0.400 HD
ATOM      9  C   LIG    1       -0.217  -4.223   2.410  0.00  0.00    +0.170 C 
ATOM     10  C   LIG    1        0.567  -4.856   1.253  0.00  0.00    +0.030 C 
ATOM     11  C   LIG    1       -1.716  -4.462   2.214  0.00  0.00    +0.020 C 
ATOM     12  C   LIG    1        0.235  -4.832   3.738  0.00  0.00    +0.040 C 
ATOM     13  C   LIG    1        0.050  -4.284  -0.066  0.00  0.00    +0.040 C 
ATOM     14  C   LIG    1        0.960  -4.745  -1.207  0.00  0.00    +0.030 C 
ATOM     15  C   LIG    1        0.023  -0.702   1.193  0.00  0.00    -0.070 A 
ENDROOT
TORSDOF 0
ENDMDL
MODEL     1026
REMARK  Name = ZINC000002571863
REMARK                            x       y       z     vdW  Elec       q    Type
REMARK                         _______ _______ _______ _____ _____    ______ ____
ROOT
ATOM      1  C   LIG    1       -2.828  -4.100   0.007  0.00  0.00    -0.090 A 
ATOM      2  C   LIG    1       -2.824  -4.784  -1.194  0.00  0.00    +0.040 A 
ATOM      3  C   LIG    1       -2.805  -6.166  -1.203  0.00  0.00    -0.010 A 
ATOM      4  C   LIG    1       -2.789  -6.865  -0.008  0.00  0.00    +0.090 A 
ATOM      5  C   LIG    1       -2.793  -6.179   1.194  0.00  0.00    -0.010 A 
ATOM      6  F   LIG    1       -2.771  -8.216  -0.016  0.00  0.00    -0.140 F 
ATOM      7  C   LIG    1       -2.807  -4.797   1.201  0.00  0.00    +0.040 A 
ENDROOT
BRANCH   1   8
ATOM      8  C   LIG    1       -2.848  -2.593   0.015  0.00  0.00    +0.060 C 
BRANCH   8   9
ATOM      9  C   LIG    1       -1.413  -2.063   0.004  0.00  0.00    +0.000 C 
BRANCH   9  10
ATOM     10  C   LIG    1       -1.433  -0.534   0.013  0.00  0.00    +0.000 C 
BRANCH  10  12
ATOM     11  C   LIG    1       -0.019   1.526   0.010  0.00  0.00    +0.000 C 
ATOM     12  C   LIG    1        0.002  -0.004   0.002  0.00  0.00    -0.010 C 
ENDBRANCH  10  12
ENDBRANCH   9  10
ENDBRANCH   8   9
ENDBRANCH   1   8
TORSDOF 4
ENDMDL
MODEL     1027
REMARK  Name = ZINC000002584498
REMARK                            x       y       z     vdW  Elec       q    Type
REMARK                         _______ _______ _______ _____ _____    ______ ____
ROOT
ATOM      1  C   LIG    1       -0.018   1.503   0.010  0.00  0.00    +0.080 C 
ATOM      2  C   LIG    1        0.002  -0.004   0.002  0.00  0.00    -0.080 A 
ATOM      3  C   LIG    1        0.006  -0.689  -1.199  0.00  0.00    +0.000 A 
ATOM      4  C   LIG    1        0.025  -2.071  -1.206  0.00  0.00    -0.070 A 
ATOM      5  C   LIG    1        0.041  -2.768  -0.013  0.00  0.00    +0.000 A 
ATOM      6  C   LIG    1        0.037  -2.084   1.188  0.00  0.00    -0.080 A 
ATOM      7  C   LIG    1        0.054  -2.844   2.489  0.00  0.00    +0.080 C 
ATOM      8  C   LIG    1        0.023  -0.702   1.195  0.00  0.00    -0.090 A 
ATOM      9  C   LIG    1        0.019   0.045   2.505  0.00  0.00    +0.090 C 
ENDROOT
BRANCH   4  10
ATOM     10  C   LIG    1        0.028  -2.817  -2.516  0.00  0.00    -0.030 C 
ATOM     11  C   LIG    1       -1.230  -2.460  -3.310  0.00  0.00    +0.040 C 
ATOM     12  C   LIG    1        0.050  -4.323  -2.244  0.00  0.00    +0.040 C 
ATOM     13  C   LIG    1        1.268  -2.426  -3.322  0.00  0.00    +0.040 C 
ENDBRANCH   4  10
TORSDOF 1
ENDMDL
MODEL     1028
REMARK  Name = ZINC000002583617
REMARK                            x       y       z     vdW  Elec       q    Type
REMARK                         _______ _______ _______ _____ _____    ______ ____
ROOT
ATOM      1  C   LIG    1        0.731  -0.503   1.223  0.00  0.00    -0.080 A 
ATOM      2  C   LIG    1        2.076  -0.703   1.166  0.00  0.00    +0.020 A 
ATOM      3  C   LIG    1        2.759  -1.168   2.302  0.00  0.00    -0.050 A 
ATOM      4  C   LIG    1        4.147  -1.385   2.282  0.00  0.00    +0.020 A 
ATOM      5  C   LIG    1        4.775  -1.836   3.402  0.00  0.00    +0.010 A 
ATOM      6  C   LIG    1        4.061  -2.086   4.573  0.00  0.00    -0.080 A 
ATOM      7  C   LIG    1        2.716  -1.887   4.630  0.00  0.00    +0.020 A 
ATOM      8  C   LIG    1        2.033  -1.422   3.493  0.00  0.00    -0.050 A 
ATOM      9  C   LIG    1        0.645  -1.204   3.514  0.00  0.00    +0.020 A 
ATOM     10  C   LIG    1        0.018  -0.748   2.395  0.00  0.00    +0.010 A 
ENDROOT
BRANCH   1  12
ATOM     11  C   LIG    1       -0.019   1.526   0.010  0.00  0.00    +0.030 C 
ATOM     12  C   LIG    1        0.002  -0.004   0.002  0.00  0.00    +0.050 C 
ENDBRANCH   1  12
BRANCH   6  13
ATOM     13  C   LIG    1        4.790  -2.585   5.794  0.00  0.00    +0.050 C 
ATOM     14  C   LIG    1        5.256  -1.393   6.632  0.00  0.00    +0.030 C 
ENDBRANCH   6  13
TORSDOF 2
ENDMDL
MODEL     1029
REMARK  Name = ZINC000002928309
REMARK                            x       y       z     vdW  Elec       q    Type
REMARK                         _______ _______ _______ _____ _____    ______ ____
ROOT
ATOM      1  C   LIG    1        0.731  -0.503   1.223  0.00  0.00    -0.090 A 
ATOM      2  C   LIG    1        2.050  -0.147   1.433  0.00  0.00    +0.040 A 
ATOM      3  C   LIG    1        2.721  -0.603   2.551  0.00  0.00    -0.010 A 
ATOM      4  C   LIG    1        2.069  -1.419   3.465  0.00  0.00    +0.140 A 
ATOM      5  C   LIG    1        0.744  -1.775   3.252  0.00  0.00    -0.010 A 
ATOM      6  C   LIG    1        0.077  -1.312   2.134  0.00  0.00    +0.040 A 
ENDROOT
BRANCH   4   7
ATOM      7  N   LIG    1        2.747  -1.883   4.601  0.00  0.00    -0.400 N 
ATOM      8  C   LIG    1        4.043  -1.600   4.926  0.00  0.00    +0.140 A 
ATOM      9  C   LIG    1        4.332  -2.224   6.086  0.00  0.00    -0.050 A 
ATOM     10  C   LIG    1        3.175  -2.918   6.493  0.00  0.00    -0.050 A 
ATOM     11  C   LIG    1        2.219  -2.688   5.570  0.00  0.00    +0.140 A 
ENDBRANCH   4   7
BRANCH   1  13
ATOM     12  C   LIG    1       -0.019   1.526   0.010  0.00  0.00    +0.030 C 
ATOM     13  C   LIG    1        0.002  -0.004   0.002  0.00  0.00    +0.020 C 
ATOM     14  C   LIG    1        0.718  -0.497  -1.257  0.00  0.00    +0.030 C 
ENDBRANCH   1  13
TORSDOF 2
ENDMDL
MODEL     1030
REMARK  Name = ZINC000003107432
REMARK                            x       y       z     vdW  Elec       q    Type
REMARK                         _______ _______ _______ _____ _____    ______ ____
ROOT
ATOM      1  C   LIG    1        1.492  -2.540   2.454  0.00  0.00    +0.140 A 
ATOM      2  C   LIG    1        0.869  -3.435   3.303  0.00  0.00    -0.050 A 
ATOM      3  C   LIG    1        1.548  -3.888   4.424  0.00  0.00    +0.060 A 
ATOM      4  C   LIG    1        2.834  -3.422   4.649  0.00  0.00    -0.050 A 
ATOM      5  C   LIG    1        3.392  -2.527   3.756  0.00  0.00    +0.140 A 
ATOM      6  N   LIG    1        2.719  -2.122   2.697  0.00  0.00    -0.480 NA
ENDROOT
BRANCH   1   7
ATOM      7  C   LIG    1        0.763  -2.041   1.233  0.00  0.00    +0.090 C 
BRANCH   7   8
ATOM      8  C   LIG    1        0.742  -0.511   1.242  0.00  0.00    +0.020 C 
BRANCH   8  10
ATOM      9  C   LIG    1       -0.019   1.526   0.010  0.00  0.00    +0.000 C 
ATOM     10  C   LIG    1        0.002  -0.004   0.002  0.00  0.00    -0.010 C 
ENDBRANCH   8  10
ENDBRANCH   7   8
ENDBRANCH   1   7
BRANCH   5  11
ATOM     11  C   LIG    1        4.790  -2.014   3.990  0.00  0.00    +0.090 C 
BRANCH  11  12
ATOM     12  C   LIG    1        5.647  -2.285   2.752  0.00  0.00    +0.020 C 
BRANCH  12  13
ATOM     13  C   LIG    1        7.066  -1.764   2.990  0.00  0.00    -0.010 C 
ATOM     14  C   LIG    1        7.923  -2.035   1.752  0.00  0.00    +0.000 C 
ENDBRANCH  12  13
ENDBRANCH  11  12
ENDBRANCH   5  11
TORSDOF 6
ENDMDL
MODEL     1031
REMARK  Name = ZINC000003107429
REMARK                            x       y       z     vdW  Elec       q    Type
REMARK                         _______ _______ _______ _____ _____    ______ ____
ROOT
ATOM      1  C   LIG    1       -1.412  -0.526   0.013  0.00  0.00    +0.140 A 
ATOM      2  C   LIG    1       -2.078  -0.664   1.216  0.00  0.00    -0.030 A 
ATOM      3  C   LIG    1       -3.380  -1.145   1.221  0.00  0.00    +0.070 A 
ATOM      4  C   LIG    1       -3.969  -1.470   0.012  0.00  0.00    -0.030 A 
ATOM      5  C   LIG    1       -3.239  -1.305  -1.163  0.00  0.00    +0.170 A 
ATOM      6  N   LIG    1       -1.998  -0.838  -1.125  0.00  0.00    -0.480 NA
ENDROOT
BRANCH   5   7
ATOM      7  C   LIG    1       -3.856  -1.649  -2.467  0.00  0.00    -0.050 A 
ATOM      8  C   LIG    1       -3.099  -1.592  -3.636  0.00  0.00    +0.050 A 
ATOM      9  C   LIG    1       -3.678  -1.914  -4.847  0.00  0.00    +0.000 A 
ATOM     10  C   LIG    1       -5.008  -2.292  -4.902  0.00  0.00    +0.010 A 
ATOM     11  C   LIG    1       -5.764  -2.349  -3.745  0.00  0.00    +0.010 A 
ATOM     12  C   LIG    1       -5.194  -2.035  -2.528  0.00  0.00    +0.030 A 
ENDBRANCH   5   7
BRANCH   1  14
ATOM     13  C   LIG    1       -0.019   1.526   0.010  0.00  0.00    +0.040 C 
ATOM     14  C   LIG    1        0.002  -0.004   0.002  0.00  0.00    +0.040 C 
ATOM     15  C   LIG    1        0.742  -0.511   1.242  0.00  0.00    +0.040 C 
ENDBRANCH   1  14
TORSDOF 2
ENDMDL
MODEL     1032
REMARK  Name = ZINC000003123623
REMARK                            x       y       z     vdW  Elec       q    Type
REMARK                         _______ _______ _______ _____ _____    ______ ____
ROOT
ATOM      1  C   LIG    1       -0.018   1.503   0.010  0.00  0.00    +0.090 C 
ATOM      2  C   LIG    1        0.002  -0.004   0.002  0.00  0.00    -0.080 A 
ATOM      3  C   LIG    1        0.006  -0.688  -1.199  0.00  0.00    -0.080 A 
ATOM      4  C   LIG    1        0.025  -2.070  -1.207  0.00  0.00    -0.080 A 
ATOM      5  C   LIG    1        0.040  -2.769  -0.013  0.00  0.00    -0.040 A 
ATOM      6  C   LIG    1        0.036  -2.083   1.189  0.00  0.00    -0.080 A 
ATOM      7  C   LIG    1        0.053  -2.844   2.490  0.00  0.00    +0.100 C 
ATOM      8 CL   LIG    1        0.064  -4.505  -0.023  0.00  0.00    -0.070 Cl
ATOM      9  C   LIG    1        0.029  -2.816  -2.517  0.00  0.00    +0.100 C 
ATOM     10  C   LIG    1       -0.010   0.073  -2.500  0.00  0.00    +0.090 C 
ATOM     11  C   LIG    1        0.023  -0.701   1.196  0.00  0.00    -0.080 A 
ATOM     12  C   LIG    1        0.019   0.045   2.505  0.00  0.00    +0.090 C 
ENDROOT
TORSDOF 0
ENDMDL
MODEL     1033
REMARK  Name = ZINC000003130625
REMARK                            x       y       z     vdW  Elec       q    Type
REMARK                         _______ _______ _______ _____ _____    ______ ____
ROOT
ATOM      1  C   LIG    1       -0.018   1.503   0.010  0.00  0.00    +0.090 C 
ATOM      2  C   LIG    1        0.002  -0.004   0.002  0.00  0.00    -0.070 A 
ATOM      3  C   LIG    1        0.006  -0.689  -1.200  0.00  0.00    +0.020 A 
ATOM      4  C   LIG    1        0.025  -2.072  -1.211  0.00  0.00    +0.010 A 
ATOM      5  C   LIG    1        0.041  -2.776  -0.024  0.00  0.00    +0.020 A 
ATOM      6  C   LIG    1        0.037  -2.091   1.192  0.00  0.00    -0.050 A 
ATOM      7  C   LIG    1        0.051  -2.585   2.592  0.00  0.00    -0.050 A 
ATOM      8  C   LIG    1        0.061  -3.882   3.109  0.00  0.00    +0.020 A 
ATOM      9  C   LIG    1        0.066  -4.079   4.474  0.00  0.00    +0.010 A 
ATOM     10  C   LIG    1        0.057  -2.996   5.335  0.00  0.00    +0.020 A 
ATOM     11  C   LIG    1        0.043  -1.708   4.829  0.00  0.00    -0.070 A 
ATOM     12  C   LIG    1        0.033  -0.530   5.769  0.00  0.00    +0.090 C 
ATOM     13  C   LIG    1        0.037  -1.502   3.466  0.00  0.00    -0.090 A 
ATOM     14  C   LIG    1        0.022  -0.245   2.631  0.00  0.00    +0.160 C 
ATOM     15  C   LIG    1        0.023  -0.699   1.192  0.00  0.00    -0.090 A 
ENDROOT
TORSDOF 0
ENDMDL
MODEL     1034
REMARK  Name = ZINC000003132309
REMARK                            x       y       z     vdW  Elec       q    Type
REMARK                         _______ _______ _______ _____ _____    ______ ____
ROOT
ATOM      1  C   LIG    1       -2.848  -2.593   0.015  0.00  0.00    +0.250 C 
ENDROOT
BRANCH   1   2
ATOM      2  C   LIG    1       -2.828  -4.096   0.131  0.00  0.00    -0.110 A 
ATOM      3  C   LIG    1       -2.893  -4.877  -1.007  0.00  0.00    +0.030 A 
ATOM      4  C   LIG    1       -2.875  -6.255  -0.901  0.00  0.00    +0.020 A 
ATOM      5  C   LIG    1       -2.792  -6.853   0.343  0.00  0.00    +0.020 A 
ATOM      6  C   LIG    1       -2.728  -6.072   1.482  0.00  0.00    +0.030 A 
ATOM      7  C   LIG    1       -2.739  -4.693   1.376  0.00  0.00    -0.030 A 
ATOM      8 CL   LIG    1       -2.658  -3.712   2.806  0.00  0.00    -0.060 Cl
ENDBRANCH   1   2
BRANCH   1   9
ATOM      9  O   LIG    1       -3.503  -2.217  -1.198  0.00  0.00    -0.550 OA
ATOM     10  H   LIG    1       -3.079  -2.559  -1.996  0.00  0.00    +0.370 HD
ENDBRANCH   1   9
BRANCH   1  11
ATOM     11  C   LIG    1       -1.413  -2.063   0.004  0.00  0.00    +0.000 C 
BRANCH  11  12
ATOM     12  C   LIG    1       -1.433  -0.534   0.013  0.00  0.00    +0.010 C 
BRANCH  12  14
ATOM     13  C   LIG    1       -0.019   1.526   0.010  0.00  0.00    +0.000 C 
ATOM     14  C   LIG    1        0.002  -0.004   0.002  0.00  0.00    -0.010 C 
ENDBRANCH  12  14
ENDBRANCH  11  12
ENDBRANCH   1  11
TORSDOF 5
ENDMDL
MODEL     1035
REMARK  Name = ZINC000003268273
REMARK                            x       y       z     vdW  Elec       q    Type
REMARK                         _______ _______ _______ _____ _____    ______ ____
ROOT
ATOM      1  C   LIG    1        0.577  -3.271   1.559  0.00  0.00    +0.130 C 
ATOM      2  C   LIG    1        0.267  -2.088   0.678  0.00  0.00    +0.010 A 
ATOM      3  C   LIG    1        0.276  -2.083  -0.670  0.00  0.00    -0.070 A 
ATOM      4  C   LIG    1       -0.070  -0.783  -1.089  0.00  0.00    -0.070 A 
ATOM      5  C   LIG    1       -0.277  -0.043   0.019  0.00  0.00    +0.010 A 
ATOM      6  C   LIG    1       -0.669   1.411   0.050  0.00  0.00    +0.130 C 
ATOM      7  N   LIG    1       -0.077  -0.841   1.107  0.00  0.00    -0.440 N 
ENDROOT
BRANCH   7   8
ATOM      8  C   LIG    1       -0.201  -0.423   2.506  0.00  0.00    +0.230 C 
ATOM      9  C   LIG    1        0.897   0.591   2.835  0.00  0.00    +0.020 C 
ATOM     10  C   LIG    1        0.767   1.027   4.296  0.00  0.00    +0.020 C 
ATOM     11  C   LIG    1       -0.604   1.670   4.516  0.00  0.00    +0.010 C 
ATOM     12  C   LIG    1       -1.702   0.656   4.187  0.00  0.00    +0.010 C 
ATOM     13  C   LIG    1       -1.572   0.220   2.726  0.00  0.00    +0.010 C 
ENDBRANCH   7   8
TORSDOF 1
ENDMDL
MODEL     1036
REMARK  Name = ZINC000137015839
REMARK                            x       y       z     vdW  Elec       q    Type
REMARK                         _______ _______ _______ _____ _____    ______ ____
ROOT
ATOM      1  C   LIG    1        0.060  -4.275  -0.021  0.00  0.00    +0.120 C 
ENDROOT
BRANCH   1   6
ATOM      2  C   LIG    1       -0.018   1.503   0.010  0.00  0.00    +0.090 C 
ATOM      3  C   LIG    1        0.002  -0.004   0.002  0.00  0.00    -0.090 A 
ATOM      4  C   LIG    1        0.006  -0.689  -1.199  0.00  0.00    +0.000 A 
ATOM      5  C   LIG    1        0.025  -2.071  -1.206  0.00  0.00    +0.010 A 
ATOM      6  C   LIG    1        0.040  -2.768  -0.013  0.00  0.00    -0.080 A 
ATOM      7  C   LIG    1        0.038  -2.084   1.188  0.00  0.00    +0.010 A 
ATOM      8  C   LIG    1        0.023  -0.702   1.195  0.00  0.00    +0.000 A 
ENDBRANCH   1   6
BRANCH   1   9
ATOM      9  C   LIG    1        1.487  -4.759  -0.032  0.00  0.00    -0.070 A 
ATOM     10  C   LIG    1        2.137  -4.968  -1.233  0.00  0.00    +0.000 A 
ATOM     11  C   LIG    1        3.447  -5.412  -1.243  0.00  0.00    +0.010 A 
ATOM     12  C   LIG    1        4.106  -5.645  -0.051  0.00  0.00    -0.010 A 
ATOM     13  C   LIG    1        3.456  -5.434   1.151  0.00  0.00    -0.080 A 
ATOM     14  C   LIG    1        4.175  -5.689   2.451  0.00  0.00    +0.090 C 
ATOM     15  C   LIG    1        2.148  -4.987   1.161  0.00  0.00    +0.000 A 
ENDBRANCH   1   9
TORSDOF 2
ENDMDL
MODEL     1037
REMARK  Name = ZINC000003851203
REMARK                            x       y       z     vdW  Elec       q    Type
REMARK                         _______ _______ _______ _____ _____    ______ ____
ROOT
ATOM      1  C   LIG    1       -4.263  -4.652   0.018  0.00  0.00    +0.210 C 
ENDROOT
BRANCH   1   2
ATOM      2  C   LIG    1       -4.245  -6.176  -0.116  0.00  0.00    +0.000 C 
ATOM      3  C   LIG    1       -3.584  -6.774   1.091  0.00  0.00    -0.060 C 
ATOM      4  C   LIG    1       -4.022  -7.822   1.713  0.00  0.00    -0.040 C 
ATOM      5  C   LIG    1       -5.255  -8.580   1.319  0.00  0.00    +0.050 C 
ATOM      6  C   LIG    1       -5.660  -8.220  -0.113  0.00  0.00    +0.010 C 
ATOM      7  C   LIG    1       -5.681  -6.692  -0.238  0.00  0.00    +0.020 C 
ENDBRANCH   1   2
BRANCH   1   8
ATOM      8  O   LIG    1       -4.895  -4.290   1.247  0.00  0.00    -0.560 OA
ATOM      9  H   LIG    1       -4.455  -4.640   2.034  0.00  0.00    +0.370 HD
ENDBRANCH   1   8
BRANCH   1  10
ATOM     10  C   LIG    1       -2.827  -4.123   0.007  0.00  0.00    -0.010 C 
BRANCH  10  11
ATOM     11  C   LIG    1       -2.848  -2.593   0.015  0.00  0.00    +0.010 C 
BRANCH  11  12
ATOM     12  C   LIG    1       -1.413  -2.063   0.004  0.00  0.00    +0.000 C 
BRANCH  12  13
ATOM     13  C   LIG    1       -1.433  -0.534   0.013  0.00  0.00    +0.000 C 
BRANCH  13  15
ATOM     14  C   LIG    1       -0.019   1.526   0.010  0.00  0.00    +0.000 C 
ATOM     15  C   LIG    1        0.002  -0.004   0.002  0.00  0.00    -0.010 C 
ENDBRANCH  13  15
ENDBRANCH  12  13
ENDBRANCH  11  12
ENDBRANCH  10  11
ENDBRANCH   1  10
TORSDOF 7
ENDMDL
MODEL     1038
REMARK  Name = ZINC000003848004
REMARK                            x       y       z     vdW  Elec       q    Type
REMARK                         _______ _______ _______ _____ _____    ______ ____
ROOT
ATOM      1  C   LIG    1       -0.018   1.503   0.010  0.00  0.00    +0.100 C 
ATOM      2  C   LIG    1        0.002  -0.004   0.002  0.00  0.00    -0.050 C 
ATOM      3  C   LIG    1       -1.136  -0.702   0.004  0.00  0.00    -0.090 C 
ATOM      4  C   LIG    1       -1.070  -2.209   0.000  0.00  0.00    +0.310 C 
ATOM      5  O   LIG    1        0.107  -2.634  -0.690  0.00  0.00    -0.310 OA
ATOM      6  C   LIG    1        1.274  -2.034  -0.356  0.00  0.00    +0.100 C 
ATOM      7  C   LIG    1        2.562  -2.817  -0.374  0.00  0.00    +0.140 C 
ATOM      8  C   LIG    1        1.278  -0.740  -0.014  0.00  0.00    -0.110 C 
ENDROOT
BRANCH   4   9
ATOM      9  C   LIG    1       -1.028  -2.713   1.420  0.00  0.00    -0.110 A 
ATOM     10  C   LIG    1        0.159  -2.692   2.127  0.00  0.00    +0.020 A 
ATOM     11  C   LIG    1        0.197  -3.154   3.429  0.00  0.00    +0.000 A 
ATOM     12  C   LIG    1       -0.953  -3.638   4.024  0.00  0.00    +0.000 A 
ATOM     13  C   LIG    1       -2.141  -3.658   3.318  0.00  0.00    +0.000 A 
ATOM     14  C   LIG    1       -2.180  -3.192   2.018  0.00  0.00    +0.010 A 
ENDBRANCH   4   9
TORSDOF 1
ENDMDL
MODEL     1039
REMARK  Name = ZINC000003941522
REMARK                            x       y       z     vdW  Elec       q    Type
REMARK                         _______ _______ _______ _____ _____    ______ ____
ROOT
ATOM      1  C   LIG    1        0.051  -2.681   2.485  0.00  0.00    +0.000 C 
ATOM      2  C   LIG    1        0.047  -1.970   3.624  0.00  0.00    +0.070 C 
ENDROOT
BRANCH   1   8
ATOM      3  C   LIG    1       -0.018   1.503   0.010  0.00  0.00    +0.130 C 
ATOM      4  C   LIG    1        0.002  -0.004   0.002  0.00  0.00    +0.130 A 
ATOM      5  C   LIG    1        0.006  -0.679  -1.205  0.00  0.00    -0.040 A 
ATOM      6  C   LIG    1        0.025  -2.068  -1.210  0.00  0.00    +0.070 A 
ATOM      7  C   LIG    1        0.040  -2.733   0.002  0.00  0.00    -0.030 A 
ATOM      8  C   LIG    1        0.035  -1.988   1.185  0.00  0.00    +0.160 A 
ATOM      9  N   LIG    1        0.022  -0.659   1.144  0.00  0.00    -0.480 NA
ENDBRANCH   1   8
BRANCH   2  10
ATOM     10  C   LIG    1        0.063  -2.662   4.925  0.00  0.00    -0.070 A 
ATOM     11  C   LIG    1        0.089  -4.059   4.976  0.00  0.00    +0.020 A 
ATOM     12  C   LIG    1        0.104  -4.700   6.197  0.00  0.00    +0.000 A 
ATOM     13  C   LIG    1        0.094  -3.964   7.369  0.00  0.00    +0.000 A 
ATOM     14  C   LIG    1        0.069  -2.581   7.326  0.00  0.00    +0.010 A 
ATOM     15  C   LIG    1        0.059  -1.926   6.112  0.00  0.00    +0.030 A 
ENDBRANCH   2  10
TORSDOF 2
ENDMDL
MODEL     1040
REMARK  Name = ZINC000003957005
REMARK                            x       y       z     vdW  Elec       q    Type
REMARK                         _______ _______ _______ _____ _____    ______ ____
ROOT
ATOM      1  C   LIG    1       -0.018   1.503   0.010  0.00  0.00    +0.180 C 
ATOM      2  C   LIG    1        0.002  -0.004   0.002  0.00  0.00    +0.180 C 
ATOM      3  N   LIG    1        0.008  -0.756  -1.040  0.00  0.00    -0.480 NA
ATOM      4  C   LIG    1        0.027  -2.094  -0.760  0.00  0.00    +0.070 A 
ATOM      5  C   LIG    1        0.039  -3.214  -1.599  0.00  0.00    +0.070 A 
ATOM      6  C   LIG    1        0.059  -4.481  -1.058  0.00  0.00    +0.040 A 
ATOM      7  C   LIG    1        0.067  -4.660   0.314  0.00  0.00    -0.030 A 
ATOM      8  C   LIG    1        0.055  -3.557   1.155  0.00  0.00    +0.060 A 
ATOM      9 CL   LIG    1        0.092  -6.262   0.982  0.00  0.00    -0.060 Cl
ATOM     10  C   LIG    1        0.036  -2.293   0.623  0.00  0.00    -0.120 A 
ATOM     11  C   LIG    1        0.026  -0.904   1.221  0.00  0.00    -0.050 C 
ATOM     12  C   LIG    1       -1.227  -0.692   2.073  0.00  0.00    +0.080 C 
ATOM     13  C   LIG    1        1.291  -0.663   2.047  0.00  0.00    +0.080 C 
ENDROOT
TORSDOF 0
ENDMDL
MODEL     1041
REMARK  Name = ZINC000004027258
REMARK                            x       y       z     vdW  Elec       q    Type
REMARK                         _______ _______ _______ _____ _____    ______ ____
ROOT
ATOM      1  C   LIG    1       -0.018   1.503   0.010  0.00  0.00    +0.060 C 
ATOM      2  C   LIG    1        0.002  -0.004   0.002  0.00  0.00    -0.130 C 
ATOM      3  C   LIG    1        0.005  -0.605  -1.145  0.00  0.00    -0.050 C 
ATOM      4  C   LIG    1        0.013  -2.096  -1.313  0.00  0.00    +0.030 C 
ATOM      5  C   LIG    1        0.442  -2.771  -0.008  0.00  0.00    -0.050 C 
ATOM      6  C   LIG    1       -0.386  -2.179   1.139  0.00  0.00    +0.020 C 
ATOM      7  C   LIG    1        1.929  -2.508   0.242  0.00  0.00    +0.020 C 
ATOM      8  C   LIG    1        0.995  -2.475  -2.423  0.00  0.00    +0.020 C 
ATOM      9  C   LIG    1        0.024  -0.715   1.324  0.00  0.00    +0.060 C 
ENDROOT
BRANCH   5  10
ATOM     10  C   LIG    1        0.195  -4.278  -0.103  0.00  0.00    +0.020 C 
BRANCH  10  11
ATOM     11  C   LIG    1        0.625  -4.948   1.203  0.00  0.00    +0.030 C 
BRANCH  11  12
ATOM     12  C   LIG    1        0.378  -6.455   1.108  0.00  0.00    +0.150 C 
ATOM     13  C   LIG    1        0.690  -7.109   2.456  0.00  0.00    +0.000 C 
BRANCH  12  14
ATOM     14  O   LIG    1        1.222  -7.014   0.101  0.00  0.00    -0.570 OA
ATOM     15  H   LIG    1        1.119  -7.969  -0.015  0.00  0.00    +0.380 HD
ENDBRANCH  12  14
ENDBRANCH  11  12
ENDBRANCH  10  11
ENDBRANCH   5  10
TORSDOF 4
ENDMDL
MODEL     1042
REMARK  Name = ZINC000004003347
REMARK                            x       y       z     vdW  Elec       q    Type
REMARK                         _______ _______ _______ _____ _____    ______ ____
ROOT
ATOM      1  C   LIG    1       -0.018   1.503   0.010  0.00  0.00    +0.090 C 
ATOM      2  C   LIG    1        0.002  -0.004   0.002  0.00  0.00    -0.040 A 
ATOM      3  C   LIG    1        0.006  -0.684  -1.203  0.00  0.00    -0.050 A 
ATOM      4  C   LIG    1        0.025  -2.066  -1.228  0.00  0.00    +0.050 A 
ATOM      5  C   LIG    1        0.042  -2.774  -0.031  0.00  0.00    -0.120 A 
ATOM      6  C   LIG    1        0.073  -4.250  -0.007  0.00  0.00    -0.060 C 
ATOM      7  C   LIG    1       -0.214  -4.894   1.117  0.00  0.00    -0.060 C 
ATOM      8  C   LIG    1       -0.588  -4.147   2.369  0.00  0.00    +0.220 C 
ATOM      9  N   LIG    1        0.048  -2.823   2.372  0.00  0.00    -0.740 N 
ATOM     10  H   LIG    1        0.466  -2.474   3.174  0.00  0.00    +0.400 HD
ATOM     11  C   LIG    1       -0.116  -4.937   3.591  0.00  0.00    +0.040 C 
ATOM     12  C   LIG    1       -2.107  -3.980   2.427  0.00  0.00    +0.020 C 
ATOM     13  C   LIG    1        0.429  -5.020  -1.253  0.00  0.00    +0.090 C 
ATOM     14  C   LIG    1        0.036  -2.079   1.190  0.00  0.00    +0.220 A 
ATOM     15  C   LIG    1        0.023  -0.698   1.200  0.00  0.00    -0.060 A 
ENDROOT
TORSDOF 0
ENDMDL
MODEL     1043
REMARK  Name = ZINC000004003344
REMARK                            x       y       z     vdW  Elec       q    Type
REMARK                         _______ _______ _______ _____ _____    ______ ____
ROOT
ATOM      1  C   LIG    1       -0.018   1.503   0.010  0.00  0.00    +0.080 C 
ATOM      2  C   LIG    1        0.002  -0.004   0.002  0.00  0.00    -0.130 A 
ATOM      3  C   LIG    1        0.006  -0.684  -1.203  0.00  0.00    +0.040 A 
ATOM      4  C   LIG    1        0.026  -2.068  -1.228  0.00  0.00    -0.060 A 
ATOM      5  C   LIG    1        0.043  -2.774  -0.040  0.00  0.00    +0.210 A 
ATOM      6  N   LIG    1        0.073  -4.169  -0.013  0.00  0.00    -0.740 N 
ATOM      7  H   LIG    1       -0.342  -4.689  -0.720  0.00  0.00    +0.400 HD
ATOM      8  C   LIG    1        0.747  -4.831   1.111  0.00  0.00    +0.220 C 
ATOM      9  C   LIG    1        0.374  -4.156   2.404  0.00  0.00    -0.060 C 
ATOM     10  C   LIG    1        0.049  -2.870   2.437  0.00  0.00    -0.060 C 
ATOM     11  C   LIG    1       -0.306  -2.212   3.746  0.00  0.00    +0.100 C 
ATOM     12  C   LIG    1        2.263  -4.746   0.915  0.00  0.00    +0.020 C 
ATOM     13  C   LIG    1        0.323  -6.300   1.165  0.00  0.00    +0.040 C 
ATOM     14  C   LIG    1        0.036  -2.087   1.186  0.00  0.00    -0.110 A 
ATOM     15  C   LIG    1        0.023  -0.696   1.198  0.00  0.00    +0.050 A 
ENDROOT
TORSDOF 0
ENDMDL
MODEL     1044
REMARK  Name = ZINC000004027256
REMARK                            x       y       z     vdW  Elec       q    Type
REMARK                         _______ _______ _______ _____ _____    ______ ____
ROOT
ATOM      1  C   LIG    1       -0.018   1.503   0.010  0.00  0.00    +0.060 C 
ATOM      2  C   LIG    1        0.002  -0.004   0.002  0.00  0.00    -0.130 C 
ATOM      3  C   LIG    1        0.005  -0.605  -1.145  0.00  0.00    -0.050 C 
ATOM      4  C   LIG    1        0.013  -2.096  -1.313  0.00  0.00    +0.030 C 
ATOM      5  C   LIG    1        0.442  -2.771  -0.008  0.00  0.00    -0.050 C 
ATOM      6  C   LIG    1       -0.386  -2.179   1.139  0.00  0.00    +0.020 C 
ATOM      7  C   LIG    1        1.929  -2.508   0.242  0.00  0.00    +0.020 C 
ATOM      8  C   LIG    1        0.995  -2.475  -2.423  0.00  0.00    +0.020 C 
ATOM      9  C   LIG    1        0.024  -0.715   1.324  0.00  0.00    +0.060 C 
ENDROOT
BRANCH   5  10
ATOM     10  C   LIG    1        0.195  -4.278  -0.103  0.00  0.00    +0.020 C 
BRANCH  10  11
ATOM     11  C   LIG    1        0.625  -4.948   1.203  0.00  0.00    +0.030 C 
BRANCH  11  12
ATOM     12  C   LIG    1        0.378  -6.455   1.108  0.00  0.00    +0.150 C 
ATOM     13  C   LIG    1        0.922  -7.141   2.363  0.00  0.00    +0.000 C 
BRANCH  12  14
ATOM     14  O   LIG    1       -1.026  -6.702   1.001  0.00  0.00    -0.570 OA
ATOM     15  H   LIG    1       -1.257  -7.638   0.937  0.00  0.00    +0.380 HD
ENDBRANCH  12  14
ENDBRANCH  11  12
ENDBRANCH  10  11
ENDBRANCH   5  10
TORSDOF 4
ENDMDL
MODEL     1045
REMARK  Name = ZINC000004027257
REMARK                            x       y       z     vdW  Elec       q    Type
REMARK                         _______ _______ _______ _____ _____    ______ ____
ROOT
ATOM      1  C   LIG    1       -0.018   1.503   0.010  0.00  0.00    +0.060 C 
ATOM      2  C   LIG    1        0.002  -0.004   0.002  0.00  0.00    -0.120 C 
ATOM      3  C   LIG    1        0.005  -0.605  -1.145  0.00  0.00    -0.050 C 
ATOM      4  C   LIG    1        0.013  -2.096  -1.313  0.00  0.00    +0.020 C 
ATOM      5  C   LIG    1        0.442  -2.771  -0.008  0.00  0.00    -0.050 C 
ATOM      6  C   LIG    1       -0.386  -2.179   1.139  0.00  0.00    +0.030 C 
ATOM      7  C   LIG    1        1.929  -2.508   0.242  0.00  0.00    +0.020 C 
ATOM      8  C   LIG    1       -1.391  -2.572  -1.689  0.00  0.00    +0.020 C 
ATOM      9  C   LIG    1        0.024  -0.715   1.324  0.00  0.00    +0.060 C 
ENDROOT
BRANCH   5  10
ATOM     10  C   LIG    1        0.195  -4.278  -0.103  0.00  0.00    +0.030 C 
BRANCH  10  11
ATOM     11  C   LIG    1        0.625  -4.948   1.203  0.00  0.00    +0.030 C 
BRANCH  11  12
ATOM     12  C   LIG    1        0.378  -6.455   1.108  0.00  0.00    +0.150 C 
ATOM     13  C   LIG    1        0.922  -7.141   2.363  0.00  0.00    +0.000 C 
BRANCH  12  14
ATOM     14  O   LIG    1       -1.026  -6.702   1.001  0.00  0.00    -0.570 OA
ATOM     15  H   LIG    1       -1.257  -7.638   0.937  0.00  0.00    +0.380 HD
ENDBRANCH  12  14
ENDBRANCH  11  12
ENDBRANCH  10  11
ENDBRANCH   5  10
TORSDOF 4
ENDMDL
MODEL     1046
REMARK  Name = ZINC000004027259
REMARK                            x       y       z     vdW  Elec       q    Type
REMARK                         _______ _______ _______ _____ _____    ______ ____
ROOT
ATOM      1  C   LIG    1       -0.018   1.503   0.010  0.00  0.00    +0.060 C 
ATOM      2  C   LIG    1        0.002  -0.004   0.002  0.00  0.00    -0.120 C 
ATOM      3  C   LIG    1        0.005  -0.605  -1.145  0.00  0.00    -0.050 C 
ATOM      4  C   LIG    1        0.013  -2.096  -1.313  0.00  0.00    +0.030 C 
ATOM      5  C   LIG    1        0.442  -2.771  -0.008  0.00  0.00    -0.050 C 
ATOM      6  C   LIG    1       -0.386  -2.179   1.139  0.00  0.00    +0.030 C 
ATOM      7  C   LIG    1        1.929  -2.508   0.242  0.00  0.00    +0.030 C 
ATOM      8  C   LIG    1       -1.391  -2.572  -1.689  0.00  0.00    +0.020 C 
ATOM      9  C   LIG    1        0.024  -0.715   1.324  0.00  0.00    +0.060 C 
ENDROOT
BRANCH   5  10
ATOM     10  C   LIG    1        0.195  -4.278  -0.103  0.00  0.00    +0.020 C 
BRANCH  10  11
ATOM     11  C   LIG    1        0.625  -4.948   1.203  0.00  0.00    +0.030 C 
BRANCH  11  12
ATOM     12  C   LIG    1        0.378  -6.455   1.108  0.00  0.00    +0.150 C 
ATOM     13  C   LIG    1        0.690  -7.109   2.456  0.00  0.00    +0.000 C 
BRANCH  12  14
ATOM     14  O   LIG    1        1.222  -7.014   0.101  0.00  0.00    -0.570 OA
ATOM     15  H   LIG    1        1.119  -7.969  -0.015  0.00  0.00    +0.380 HD
ENDBRANCH  12  14
ENDBRANCH  11  12
ENDBRANCH  10  11
ENDBRANCH   5  10
TORSDOF 4
ENDMDL
MODEL     1047
REMARK  Name = ZINC000004532291
REMARK                            x       y       z     vdW  Elec       q    Type
REMARK                         _______ _______ _______ _____ _____    ______ ____
ROOT
ATOM      1  C   LIG    1       -0.019   1.526   0.010  0.00  0.00    +0.080 C 
ATOM      2  C   LIG    1        0.002  -0.004   0.002  0.00  0.00    -0.060 C 
ATOM      3  C   LIG    1       -1.416  -0.573   0.076  0.00  0.00    +0.050 C 
ATOM      4  C   LIG    1       -2.011  -0.209   1.441  0.00  0.00    +0.010 C 
ATOM      5  C   LIG    1       -1.252  -0.889   2.577  0.00  0.00    +0.030 C 
ATOM      6  C   LIG    1        0.204  -0.395   2.615  0.00  0.00    +0.130 C 
ATOM      7  C   LIG    1        0.805  -0.524  -1.143  0.00  0.00    -0.130 A 
ATOM      8  C   LIG    1        0.627  -0.471  -2.505  0.00  0.00    +0.050 A 
ATOM      9  C   LIG    1        1.620  -1.046  -3.294  0.00  0.00    +0.010 A 
ATOM     10  C   LIG    1        2.725  -1.654  -2.733  0.00  0.00    +0.010 A 
ATOM     11  C   LIG    1        2.902  -1.738  -1.362  0.00  0.00    +0.060 A 
ATOM     12  C   LIG    1        1.907  -1.175  -0.553  0.00  0.00    +0.060 A 
ATOM     13  N   LIG    1        1.808  -1.131   0.801  0.00  0.00    -0.470 NA
ATOM     14  C   LIG    1        0.748  -0.554   1.216  0.00  0.00    +0.170 C 
ENDROOT
TORSDOF 0
ENDMDL
MODEL     1048
REMARK  Name = ZINC000004532290
REMARK                            x       y       z     vdW  Elec       q    Type
REMARK                         _______ _______ _______ _____ _____    ______ ____
ROOT
ATOM      1  C   LIG    1       -0.019   1.526   0.010  0.00  0.00    +0.080 C 
ATOM      2  C   LIG    1        0.002  -0.004   0.002  0.00  0.00    -0.060 C 
ATOM      3  C   LIG    1        0.766  -0.536  -1.211  0.00  0.00    +0.050 C 
ATOM      4  C   LIG    1        2.239  -0.138  -1.067  0.00  0.00    +0.010 C 
ATOM      5  C   LIG    1        2.884  -0.820   0.137  0.00  0.00    +0.030 C 
ATOM      6  C   LIG    1        2.201  -0.362   1.437  0.00  0.00    +0.130 C 
ATOM      7  C   LIG    1       -1.375  -0.561   0.143  0.00  0.00    -0.130 A 
ATOM      8  C   LIG    1       -2.482  -0.524  -0.670  0.00  0.00    +0.050 A 
ATOM      9  C   LIG    1       -3.638  -1.135  -0.191  0.00  0.00    +0.010 A 
ATOM     10  C   LIG    1       -3.666  -1.762   1.038  0.00  0.00    +0.010 A 
ATOM     11  C   LIG    1       -2.549  -1.829   1.855  0.00  0.00    +0.060 A 
ATOM     12  C   LIG    1       -1.375  -1.230   1.384  0.00  0.00    +0.060 A 
ATOM     13  N   LIG    1       -0.143  -1.163   1.953  0.00  0.00    -0.470 NA
ATOM     14  C   LIG    1        0.718  -0.555   1.234  0.00  0.00    +0.170 C 
ENDROOT
TORSDOF 0
ENDMDL
MODEL     1049
REMARK  Name = ZINC000000201933
REMARK                            x       y       z     vdW  Elec       q    Type
REMARK                         _______ _______ _______ _____ _____    ______ ____
ROOT
ATOM      1  C   LIG    1       -0.018   1.503   0.010  0.00  0.00    +0.100 C 
ATOM      2  C   LIG    1        0.002  -0.004   0.002  0.00  0.00    -0.100 A 
ATOM      3  C   LIG    1        0.006  -0.685  -1.207  0.00  0.00    +0.080 A 
ATOM      4  C   LIG    1        0.025  -2.064  -1.238  0.00  0.00    +0.000 A 
ATOM      5  C   LIG    1        0.041  -2.780  -0.047  0.00  0.00    +0.150 A 
ATOM      6  N   LIG    1        0.060  -4.160  -0.048  0.00  0.00    -0.550 N 
ATOM      7  H   LIG    1        0.063  -4.637  -0.892  0.00  0.00    +0.430 HD
ATOM      8  C   LIG    1        0.075  -4.851   1.105  0.00  0.00    +0.340 A 
ATOM      9  C   LIG    1        0.073  -4.204   2.357  0.00  0.00    +0.010 A 
ATOM     10  C   LIG    1        0.054  -2.850   2.427  0.00  0.00    +0.030 A 
ATOM     11  C   LIG    1        0.052  -2.148   3.760  0.00  0.00    +0.130 C 
ATOM     12  S   LIG    1        0.099  -6.562   1.051  0.00  0.00    -0.600 S 
ATOM     13  C   LIG    1        0.037  -2.086   1.178  0.00  0.00    -0.100 A 
ATOM     14  C   LIG    1        0.023  -0.688   1.185  0.00  0.00    +0.080 A 
ENDROOT
TORSDOF 0
ENDMDL
MODEL     1050
REMARK  Name = ZINC000004666816
REMARK                            x       y       z     vdW  Elec       q    Type
REMARK                         _______ _______ _______ _____ _____    ______ ____
ROOT
ATOM      1  C   LIG    1        0.417   1.476   0.026  0.00  0.00    +0.110 C 
ATOM      2  C   LIG    1        0.209  -0.017   0.009  0.00  0.00    +0.070 A 
ATOM      3  C   LIG    1        0.212  -0.720  -1.211  0.00  0.00    -0.150 A 
ATOM      4  C   LIG    1        0.379  -0.325  -2.549  0.00  0.00    -0.070 A 
ATOM      5  C   LIG    1        0.287  -1.451  -3.338  0.00  0.00    -0.010 A 
ATOM      6  C   LIG    1        0.064  -2.556  -2.521  0.00  0.00    -0.110 A 
ATOM      7  C   LIG    1        0.015  -2.126  -1.206  0.00  0.00    -0.010 A 
ATOM      8  N   LIG    1       -0.177  -2.787  -0.006  0.00  0.00    -0.280 N 
ATOM      9  C   LIG    1       -0.366  -4.131  -0.003  0.00  0.00    +0.250 A 
ATOM     10  C   LIG    1       -0.556  -4.804   1.157  0.00  0.00    +0.010 A 
ATOM     11  C   LIG    1       -0.562  -4.115   2.375  0.00  0.00    +0.080 A 
ATOM     12  C   LIG    1       -0.373  -2.763   2.381  0.00  0.00    +0.030 A 
ATOM     13  C   LIG    1       -0.176  -2.087   1.167  0.00  0.00    +0.180 A 
ATOM     14  C   LIG    1        0.023  -0.696   1.173  0.00  0.00    -0.210 A 
ATOM     15  C   LIG    1        0.021   0.052   2.482  0.00  0.00    +0.110 C 
ENDROOT
TORSDOF 0
ENDMDL
MODEL     1051
REMARK  Name = ZINC000000968303
REMARK                            x       y       z     vdW  Elec       q    Type
REMARK                         _______ _______ _______ _____ _____    ______ ____
ROOT
ATOM      1  C   LIG    1       -1.412  -0.526   0.013  0.00  0.00    -0.100 A 
ATOM      2  C   LIG    1       -2.259  -0.205   1.056  0.00  0.00    +0.010 A 
ATOM      3  C   LIG    1       -3.557  -0.683   1.066  0.00  0.00    +0.000 A 
ATOM      4  C   LIG    1       -4.009  -1.483   0.033  0.00  0.00    +0.010 A 
ATOM      5  C   LIG    1       -3.166  -1.806  -1.012  0.00  0.00    -0.100 A 
ATOM      6  C   LIG    1       -1.865  -1.324  -1.028  0.00  0.00    +0.100 A 
ENDROOT
BRANCH   1   8
ATOM      7  C   LIG    1       -0.019   1.526   0.010  0.00  0.00    +0.030 C 
ATOM      8  C   LIG    1        0.002  -0.004   0.002  0.00  0.00    +0.020 C 
ATOM      9  C   LIG    1        0.742  -0.511   1.242  0.00  0.00    +0.040 C 
ENDBRANCH   1   8
BRANCH   5  10
ATOM     10  C   LIG    1       -3.660  -2.678  -2.138  0.00  0.00    +0.020 C 
ATOM     11  C   LIG    1       -4.851  -2.004  -2.820  0.00  0.00    +0.030 C 
ATOM     12  C   LIG    1       -4.093  -4.035  -1.579  0.00  0.00    +0.040 C 
ENDBRANCH   5  10
BRANCH   6  13
ATOM     13  O   LIG    1       -1.034  -1.641  -2.054  0.00  0.00    -0.490 OA
ATOM     14  H   LIG    1       -1.064  -1.016  -2.792  0.00  0.00    +0.390 HD
ENDBRANCH   6  13
TORSDOF 3
ENDMDL
MODEL     1052
REMARK  Name = ZINC000005140080
REMARK                            x       y       z     vdW  Elec       q    Type
REMARK                         _______ _______ _______ _____ _____    ______ ____
ROOT
ATOM      1  C   LIG    1       -3.497  -0.036  -1.266  0.00  0.00    +0.220 A 
ATOM      2  C   LIG    1       -4.245  -0.283  -0.122  0.00  0.00    -0.080 A 
ATOM      3  C   LIG    1       -5.621  -0.170  -0.161  0.00  0.00    -0.040 A 
ATOM      4  C   LIG    1       -6.254   0.189  -1.336  0.00  0.00    -0.060 A 
ATOM      5  C   LIG    1       -5.513   0.435  -2.478  0.00  0.00    +0.050 A 
ATOM      6  C   LIG    1       -6.433  -0.438   1.080  0.00  0.00    +0.080 C 
ATOM      7  C   LIG    1       -4.136   0.330  -2.445  0.00  0.00    -0.170 A 
ATOM      8  C   LIG    1       -3.329   0.599  -3.688  0.00  0.00    +0.090 C 
ENDROOT
BRANCH   1   9
ATOM      9  N   LIG    1       -2.105  -0.148  -1.230  0.00  0.00    -0.740 N 
ATOM     10  H   LIG    1       -1.584   0.029  -2.029  0.00  0.00    +0.400 HD
BRANCH   9  11
ATOM     11  C   LIG    1       -1.433  -0.534   0.013  0.00  0.00    +0.230 C 
ATOM     12  C   LIG    1       -1.413  -2.059   0.130  0.00  0.00    +0.010 C 
BRANCH  11  14
ATOM     13  C   LIG    1       -0.019   1.526   0.010  0.00  0.00    +0.020 C 
ATOM     14  C   LIG    1        0.002  -0.004   0.002  0.00  0.00    +0.020 C 
ENDBRANCH  11  14
ENDBRANCH   9  11
ENDBRANCH   1   9
TORSDOF 3
ENDMDL
MODEL     1053
REMARK  Name = ZINC000005218699
REMARK                            x       y       z     vdW  Elec       q    Type
REMARK                         _______ _______ _______ _____ _____    ______ ____
ROOT
ATOM      1  C   LIG    1       -0.018   1.503   0.010  0.00  0.00    +0.100 C 
ATOM      2  C   LIG    1        0.002  -0.004   0.002  0.00  0.00    -0.080 C 
ATOM      3  C   LIG    1        0.006  -0.687  -1.142  0.00  0.00    -0.060 C 
ATOM      4  C   LIG    1        0.037  -2.192  -1.109  0.00  0.00    +0.140 C 
ATOM      5  N   LIG    1       -0.737  -2.707   0.023  0.00  0.00    -0.620 N 
ATOM      6  H   LIG    1       -1.727  -2.594  -0.135  0.00  0.00    +0.350 HD
ATOM      7  C   LIG    1       -0.355  -2.129   1.229  0.00  0.00    +0.110 A 
ATOM      8  C   LIG    1       -0.339  -2.871   2.400  0.00  0.00    -0.080 A 
ATOM      9  C   LIG    1        0.040  -2.275   3.588  0.00  0.00    +0.010 A 
ATOM     10  C   LIG    1        0.406  -0.941   3.622  0.00  0.00    -0.010 A 
ATOM     11  C   LIG    1        0.398  -0.187   2.464  0.00  0.00    +0.020 A 
ATOM     12  C   LIG    1       -0.735  -4.325   2.377  0.00  0.00    +0.100 C 
ATOM     13  C   LIG    1        1.488  -2.662  -0.981  0.00  0.00    +0.050 C 
ATOM     14  C   LIG    1       -0.554  -2.735  -2.412  0.00  0.00    +0.060 C 
ATOM     15  C   LIG    1        0.025  -0.776   1.263  0.00  0.00    -0.090 A 
ENDROOT
TORSDOF 0
ENDMDL
