MODEL        1
REMARK  Name = ZINC000005239987
REMARK                            x       y       z     vdW  Elec       q    Type
REMARK                         _______ _______ _______ _____ _____    ______ ____
ROOT
ATOM      1  N   LIG    1       -1.272  -1.232   1.591  0.00  0.00    -0.510 N 
ATOM      2  H   LIG    1       -0.394  -1.531   1.987  0.00  0.00    +0.420 HD
ATOM      3  H   LIG    1       -1.917  -2.007   1.578  0.00  0.00    +0.430 HD
ENDROOT
BRANCH   1   4
ATOM      4  C   LIG    1       -1.831  -0.145   2.407  0.00  0.00    +0.220 C 
ATOM      5  C   LIG    1       -0.834   1.014   2.464  0.00  0.00    +0.100 C 
BRANCH   4   6
ATOM      6  C   LIG    1       -2.096  -0.649   3.802  0.00  0.00    -0.140 A 
ATOM      7  C   LIG    1       -1.192  -1.496   4.414  0.00  0.00    +0.000 A 
ATOM      8  C   LIG    1       -1.435  -1.958   5.694  0.00  0.00    +0.040 A 
ATOM      9  C   LIG    1       -2.583  -1.573   6.362  0.00  0.00    +0.050 A 
ATOM     10  C   LIG    1       -3.487  -0.726   5.749  0.00  0.00    +0.040 A 
ATOM     11  C   LIG    1       -3.241  -0.260   4.471  0.00  0.00    +0.040 A 
ENDBRANCH   4   6
ENDBRANCH   1   4
BRANCH   1  12
ATOM     12  C   LIG    1       -1.053  -0.752   0.220  0.00  0.00    +0.160 C 
BRANCH  12  14
ATOM     13  C   LIG    1        1.108  -1.981  -0.029  0.00  0.00    +0.030 C 
ATOM     14  C   LIG    1       -0.310  -1.822  -0.582  0.00  0.00    +0.050 C 
ENDBRANCH  12  14
BRANCH  12  15
ATOM     15  C   LIG    1       -2.403  -0.465  -0.441  0.00  0.00    +0.040 C 
ATOM     16  C   LIG    1       -2.763   1.009  -0.247  0.00  0.00    +0.030 C 
ENDBRANCH  12  15
ENDBRANCH   1  12
TORSDOF 5
ENDMDL
MODEL        2
REMARK  Name = ZINC000003860297
REMARK                            x       y       z     vdW  Elec       q    Type
REMARK                         _______ _______ _______ _____ _____    ______ ____
ROOT
ATOM      1  C   LIG    1       -0.699   1.479   1.216  0.00  0.00    +0.170 C 
ATOM      2  C   LIG    1       -2.168   1.054   1.167  0.00  0.00    +0.050 C 
ATOM      3  C   LIG    1       -2.472   0.427  -0.195  0.00  0.00    -0.000 C 
ATOM      4  C   LIG    1       -3.105  -0.952   0.008  0.00  0.00    +0.030 C 
ATOM      5  C   LIG    1       -2.322  -1.995  -0.791  0.00  0.00    -0.010 C 
ATOM      6  C   LIG    1       -1.908  -3.141   0.135  0.00  0.00    +0.010 C 
ATOM      7  C   LIG    1       -0.398  -3.365   0.025  0.00  0.00    +0.010 C 
ATOM      8  C   LIG    1        0.227  -3.324   1.421  0.00  0.00    +0.010 C 
ATOM      9  C   LIG    1        1.375  -2.313   1.437  0.00  0.00    -0.010 C 
ATOM     10  C   LIG    1        1.163  -1.319   2.580  0.00  0.00    +0.030 C 
ATOM     11  C   LIG    1        1.224   0.109   2.032  0.00  0.00    -0.000 C 
ATOM     12  C   LIG    1       -0.034   0.871   2.453  0.00  0.00    +0.050 C 
ENDROOT
BRANCH   1  13
ATOM     13  N   LIG    1       -0.012   1.005   0.008  0.00  0.00    -0.640 N 
ATOM     14  H   LIG    1       -0.450   1.406  -0.808  0.00  0.00    +0.430 HD
ATOM     15  H   LIG    1        0.957   1.285   0.040  0.00  0.00    +0.430 HD
ATOM     16  H   LIG    1       -0.070  -0.001  -0.040  0.00  0.00    +0.440 HD
ENDBRANCH   1  13
TORSDOF 1
ENDMDL
MODEL        3
REMARK  Name = ZINC000003954158
REMARK                            x       y       z     vdW  Elec       q    Type
REMARK                         _______ _______ _______ _____ _____    ______ ____
ROOT
ATOM      1  C   LIG    1       -0.000   1.364  -0.299  0.00  0.00    -0.080 A 
ATOM      2  C   LIG    1        1.014   2.029   0.397  0.00  0.00    +0.180 A 
ATOM      3  C   LIG    1        0.987   3.401   0.504  0.00  0.00    +0.000 A 
ATOM      4  C   LIG    1       -0.049   4.126  -0.078  0.00  0.00    +0.300 A 
ATOM      5  C   LIG    1       -1.060   3.467  -0.771  0.00  0.00    +0.000 A 
ATOM      6  C   LIG    1       -1.036   2.096  -0.887  0.00  0.00    +0.180 A 
ENDROOT
BRANCH   1   8
ATOM      7  N   LIG    1        0.042  -1.016  -0.489  0.00  0.00    +0.260 NA
ATOM      8  N   LIG    1        0.024   0.014  -0.407  0.00  0.00    +0.160 NA
ENDBRANCH   1   8
BRANCH   4   9
ATOM      9  N   LIG    1       -0.073   5.514   0.033  0.00  0.00    -0.650 N 
ATOM     10  H   LIG    1       -0.921   5.985   0.046  0.00  0.00    +0.430 HD
BRANCH   9  11
ATOM     11  C   LIG    1        1.124   6.229   0.125  0.00  0.00    +0.130 A 
ATOM     12  C   LIG    1        2.272   5.746  -0.491  0.00  0.00    -0.020 A 
ATOM     13  C   LIG    1        3.454   6.455  -0.399  0.00  0.00    +0.040 A 
ATOM     14  C   LIG    1        3.495   7.644   0.306  0.00  0.00    +0.010 A 
ATOM     15  C   LIG    1        2.355   8.127   0.921  0.00  0.00    +0.050 A 
ATOM     16  C   LIG    1        1.168   7.426   0.827  0.00  0.00    -0.010 A 
ENDBRANCH   9  11
ENDBRANCH   4   9
TORSDOF 3
ENDMDL
MODEL        4
REMARK  Name = ZINC000005973602
REMARK                            x       y       z     vdW  Elec       q    Type
REMARK                         _______ _______ _______ _____ _____    ______ ____
ROOT
ATOM      1  C   LIG    1        1.473  -4.228   2.469  0.00  0.00    +0.230 C 
ENDROOT
BRANCH   1   2
ATOM      2  C   LIG    1        1.994  -4.744   3.785  0.00  0.00    -0.140 A 
ATOM      3  C   LIG    1        2.892  -3.990   4.517  0.00  0.00    +0.000 A 
ATOM      4  C   LIG    1        3.370  -4.463   5.724  0.00  0.00    +0.040 A 
ATOM      5  C   LIG    1        2.950  -5.691   6.200  0.00  0.00    +0.050 A 
ATOM      6  C   LIG    1        2.052  -6.446   5.469  0.00  0.00    +0.040 A 
ATOM      7  C   LIG    1        1.570  -5.970   4.263  0.00  0.00    +0.040 A 
ENDBRANCH   1   2
BRANCH   1   8
ATOM      8  N   LIG    1        1.217  -2.785   2.576  0.00  0.00    -0.510 N 
ATOM      9  H   LIG    1        2.052  -2.318   2.894  0.00  0.00    +0.420 HD
ATOM     10  H   LIG    1        0.952  -2.423   1.672  0.00  0.00    +0.430 HD
BRANCH   8  11
ATOM     11  C   LIG    1        0.129  -2.551   3.535  0.00  0.00    +0.250 C 
BRANCH  11  12
ATOM     12  C   LIG    1       -0.224  -1.062   3.551  0.00  0.00    +0.030 C 
BRANCH  12  14
ATOM     13  C   LIG    1       -1.710   0.671   4.567  0.00  0.00    +0.030 C 
ATOM     14  C   LIG    1       -1.357  -0.818   4.550  0.00  0.00    +0.020 C 
ENDBRANCH  12  14
ENDBRANCH  11  12
ENDBRANCH   8  11
ENDBRANCH   1   8
BRANCH   1  15
ATOM     15  C   LIG    1        2.511  -4.482   1.374  0.00  0.00    +0.060 C 
ATOM     16  C   LIG    1        1.931  -4.077   0.017  0.00  0.00    +0.030 C 
ENDBRANCH   1  15
TORSDOF 6
ENDMDL
MODEL        5
REMARK  Name = ZINC000010474862
REMARK                            x       y       z     vdW  Elec       q    Type
REMARK                         _______ _______ _______ _____ _____    ______ ____
ROOT
ATOM      1  N   LIG    1        2.234  -4.564   3.654  0.00  0.00    -0.510 N 
ATOM      2  H   LIG    1        1.762  -4.239   4.484  0.00  0.00    +0.430 HD
ATOM      3  H   LIG    1        3.181  -4.215   3.647  0.00  0.00    +0.430 HD
ENDROOT
BRANCH   1   4
ATOM      4  C   LIG    1        1.524  -4.077   2.464  0.00  0.00    +0.250 C 
BRANCH   4   5
ATOM      5  C   LIG    1        1.503  -2.548   2.473  0.00  0.00    +0.030 C 
BRANCH   5   6
ATOM      6  C   LIG    1        0.763  -2.041   1.233  0.00  0.00    +0.020 C 
BRANCH   6   7
ATOM      7  C   LIG    1        0.742  -0.511   1.242  0.00  0.00    +0.020 C 
BRANCH   7   9
ATOM      8  C   LIG    1       -0.019   1.526   0.010  0.00  0.00    +0.020 C 
ATOM      9  C   LIG    1        0.002  -0.004   0.002  0.00  0.00    -0.010 C 
ENDBRANCH   7   9
ENDBRANCH   6   7
ENDBRANCH   5   6
ENDBRANCH   4   5
ENDBRANCH   1   4
BRANCH   1  10
ATOM     10  C   LIG    1        2.254  -6.033   3.646  0.00  0.00    +0.250 C 
BRANCH  10  11
ATOM     11  C   LIG    1        2.994  -6.540   4.886  0.00  0.00    -0.020 C 
ATOM     12  C   LIG    1        2.210  -6.152   6.141  0.00  0.00    +0.010 C 
ATOM     13  C   LIG    1        2.950  -6.659   7.381  0.00  0.00    +0.020 C 
ATOM     14  C   LIG    1        3.080  -8.182   7.310  0.00  0.00    +0.010 C 
ATOM     15  C   LIG    1        3.864  -8.569   6.055  0.00  0.00    +0.020 C 
ATOM     16  C   LIG    1        3.124  -8.063   4.815  0.00  0.00    +0.030 C 
ENDBRANCH  10  11
ENDBRANCH   1  10
TORSDOF 7
ENDMDL
MODEL        6
REMARK  Name = ZINC000001081139
REMARK                            x       y       z     vdW  Elec       q    Type
REMARK                         _______ _______ _______ _____ _____    ______ ____
ROOT
ATOM      1  P   LIG    1        0.883  -2.341  -1.180  0.00  0.00    +1.830 P 
ATOM      2  H   LIG    1        1.123  -2.646   0.186  0.00  0.00    -0.100 HD
ENDROOT
BRANCH   1   3
ATOM      3  C   LIG    1        0.814  -0.532  -1.396  0.00  0.00    -0.310 C 
BRANCH   3   5
ATOM      4  C   LIG    1        0.007   1.607  -0.388  0.00  0.00    +0.040 C 
ATOM      5  C   LIG    1       -0.048   0.081  -0.291  0.00  0.00    +0.040 C 
ENDBRANCH   3   5
ENDBRANCH   1   3
BRANCH   1   6
ATOM      6  C   LIG    1        2.231  -3.024  -2.201  0.00  0.00    -0.320 C 
BRANCH   6   7
ATOM      7  C   LIG    1        3.576  -2.711  -1.544  0.00  0.00    +0.030 C 
ATOM      8  C   LIG    1        4.707  -3.284  -2.401  0.00  0.00    +0.050 C 
ENDBRANCH   6   7
ENDBRANCH   1   6
BRANCH   1   9
ATOM      9  C   LIG    1       -0.703  -3.076  -1.698  0.00  0.00    -0.310 C 
BRANCH   9  10
ATOM     10  C   LIG    1       -1.755  -2.833  -0.614  0.00  0.00    +0.030 C 
ATOM     11  C   LIG    1       -3.109  -3.364  -1.089  0.00  0.00    +0.050 C 
ENDBRANCH   9  10
ENDBRANCH   1   9
TORSDOF 6
ENDMDL
MODEL        7
REMARK  Name = ZINC000019233166
REMARK                            x       y       z     vdW  Elec       q    Type
REMARK                         _______ _______ _______ _____ _____    ______ ____
ROOT
ATOM      1  C   LIG    1        0.739  -2.027  -1.265  0.00  0.00    -0.010 C 
ATOM      2  C   LIG    1       -0.692  -2.556  -1.380  0.00  0.00    +0.020 C 
ATOM      3  C   LIG    1       -0.671  -4.086  -1.389  0.00  0.00    +0.060 C 
ATOM      4  C   LIG    1        0.151  -4.578  -2.581  0.00  0.00    +0.170 C 
ATOM      5  C   LIG    1        1.583  -4.050  -2.466  0.00  0.00    +0.060 C 
ATOM      6  C   LIG    1        1.562  -2.520  -2.457  0.00  0.00    +0.020 C 
ENDROOT
BRANCH   4   7
ATOM      7  N   LIG    1       -0.452  -4.090  -3.828  0.00  0.00    -0.510 N 
ATOM      8  H   LIG    1       -0.392  -3.083  -3.859  0.00  0.00    +0.420 HD
ATOM      9  H   LIG    1       -1.421  -4.370  -3.864  0.00  0.00    +0.430 HD
BRANCH   7  10
ATOM     10  C   LIG    1        0.266  -4.660  -4.976  0.00  0.00    +0.250 C 
BRANCH  10  11
ATOM     11  C   LIG    1       -0.363  -4.151  -6.274  0.00  0.00    -0.030 C 
ATOM     12  C   LIG    1        0.303  -4.840  -7.467  0.00  0.00    +0.070 C 
ATOM     13  C   LIG    1       -0.161  -2.638  -6.380  0.00  0.00    +0.030 C 
ENDBRANCH  10  11
ENDBRANCH   7  10
ENDBRANCH   4   7
BRANCH   1  14
ATOM     14  C   LIG    1        0.718  -0.497  -1.257  0.00  0.00    +0.010 C 
BRANCH  14  16
ATOM     15  C   LIG    1       -0.019   1.526   0.010  0.00  0.00    +0.010 C 
ATOM     16  C   LIG    1        0.002  -0.004   0.002  0.00  0.00    -0.010 C 
ENDBRANCH  14  16
ENDBRANCH   1  14
TORSDOF 5
ENDMDL
MODEL        8
REMARK  Name = ZINC000019807363
REMARK                            x       y       z     vdW  Elec       q    Type
REMARK                         _______ _______ _______ _____ _____    ______ ____
ROOT
ATOM      1  C   LIG    1        1.472  -2.466   2.424  0.00  0.00    +0.170 C 
ATOM      2  C   LIG    1        0.689  -2.079   3.679  0.00  0.00    +0.060 C 
ATOM      3  C   LIG    1       -0.705  -2.708   3.625  0.00  0.00    +0.020 C 
ATOM      4  C   LIG    1       -0.575  -4.231   3.554  0.00  0.00    +0.010 C 
ATOM      5  C   LIG    1        0.209  -4.618   2.298  0.00  0.00    +0.020 C 
ATOM      6  C   LIG    1        1.602  -3.989   2.353  0.00  0.00    +0.060 C 
ENDROOT
BRANCH   4   7
ATOM      7  C   LIG    1       -1.969  -4.859   3.500  0.00  0.00    -0.060 C 
ATOM      8  C   LIG    1       -2.752  -4.472   4.755  0.00  0.00    +0.030 C 
ATOM      9  C   LIG    1       -1.839  -6.382   3.429  0.00  0.00    +0.030 C 
ATOM     10  C   LIG    1       -2.709  -4.353   2.260  0.00  0.00    +0.010 C 
ENDBRANCH   4   7
BRANCH   1  11
ATOM     11  N   LIG    1        0.762  -1.980   1.234  0.00  0.00    -0.510 N 
ATOM     12  H   LIG    1        1.234  -2.305   0.403  0.00  0.00    +0.430 HD
ATOM     13  H   LIG    1       -0.185  -2.329   1.241  0.00  0.00    +0.420 HD
BRANCH  11  14
ATOM     14  C   LIG    1        0.742  -0.511   1.242  0.00  0.00    +0.250 C 
BRANCH  14  16
ATOM     15  C   LIG    1       -0.019   1.526   0.010  0.00  0.00    +0.060 C 
ATOM     16  C   LIG    1        0.002  -0.004   0.002  0.00  0.00    +0.020 C 
ENDBRANCH  14  16
ENDBRANCH  11  14
ENDBRANCH   1  11
TORSDOF 4
ENDMDL
MODEL        9
REMARK  Name = ZINC000019880410
REMARK                            x       y       z     vdW  Elec       q    Type
REMARK                         _______ _______ _______ _____ _____    ______ ____
ROOT
ATOM      1  C   LIG    1       -2.055  -0.116  -1.244  0.00  0.00    +0.170 C 
ATOM      2  C   LIG    1       -1.301  -0.712  -2.434  0.00  0.00    +0.060 C 
ATOM      3  C   LIG    1       -1.267  -2.236  -2.305  0.00  0.00    +0.010 C 
ATOM      4  C   LIG    1       -2.697  -2.778  -2.283  0.00  0.00    +0.030 C 
ATOM      5  C   LIG    1       -3.451  -2.183  -1.093  0.00  0.00    +0.020 C 
ATOM      6  C   LIG    1       -3.485  -0.658  -1.222  0.00  0.00    +0.020 C 
ENDROOT
BRANCH   6   7
ATOM      7  C   LIG    1       -4.239  -0.062  -0.031  0.00  0.00    -0.080 C 
ATOM      8  C   LIG    1       -5.740  -0.060  -0.327  0.00  0.00    +0.070 C 
ATOM      9  C   LIG    1       -3.764   1.372   0.206  0.00  0.00    +0.040 C 
ATOM     10  C   LIG    1       -3.967  -0.903   1.217  0.00  0.00    +0.030 C 
ENDBRANCH   6   7
BRANCH   1  11
ATOM     11  N   LIG    1       -1.372  -0.486   0.003  0.00  0.00    -0.510 N 
ATOM     12  H   LIG    1       -1.865  -0.087   0.788  0.00  0.00    +0.420 HD
ATOM     13  H   LIG    1       -1.355  -1.491   0.091  0.00  0.00    +0.420 HD
BRANCH  11  15
ATOM     14  C   LIG    1       -0.022   1.557  -0.030  0.00  0.00    +0.090 C 
ATOM     15  C   LIG    1        0.004   0.028  -0.022  0.00  0.00    +0.150 C 
ATOM     16  C   LIG    1        0.754  -0.463   1.219  0.00  0.00    +0.090 C 
ENDBRANCH  11  15
ENDBRANCH   1  11
TORSDOF 3
ENDMDL
MODEL       10
REMARK  Name = ZINC000019880409
REMARK                            x       y       z     vdW  Elec       q    Type
REMARK                         _______ _______ _______ _____ _____    ______ ____
ROOT
ATOM      1  C   LIG    1       -2.131  -0.027  -1.589  0.00  0.00    +0.160 C 
ATOM      2  C   LIG    1       -2.151   1.453  -1.978  0.00  0.00    +0.040 C 
ATOM      3  C   LIG    1       -2.975   1.634  -3.254  0.00  0.00    +0.030 C 
ATOM      4  C   LIG    1       -4.406   1.151  -3.009  0.00  0.00    +0.020 C 
ATOM      5  C   LIG    1       -4.386  -0.328  -2.620  0.00  0.00    +0.050 C 
ATOM      6  C   LIG    1       -3.562  -0.509  -1.344  0.00  0.00    +0.000 C 
ENDROOT
BRANCH   6   7
ATOM      7  C   LIG    1       -3.542  -1.989  -0.956  0.00  0.00    -0.080 C 
ATOM      8  C   LIG    1       -4.957  -2.561  -1.053  0.00  0.00    +0.050 C 
ATOM      9  C   LIG    1       -3.032  -2.132   0.480  0.00  0.00    +0.030 C 
ATOM     10  C   LIG    1       -2.616  -2.753  -1.905  0.00  0.00    +0.030 C 
ENDBRANCH   6   7
BRANCH   1  11
ATOM     11  N   LIG    1       -1.339  -0.201  -0.364  0.00  0.00    -0.510 N 
ATOM     12  H   LIG    1       -0.675   0.555  -0.283  0.00  0.00    +0.420 HD
ATOM     13  H   LIG    1       -1.953  -0.196   0.437  0.00  0.00    +0.430 HD
BRANCH  11  15
ATOM     14  C   LIG    1       -0.029  -1.670  -1.821  0.00  0.00    +0.090 C 
ATOM     15  C   LIG    1       -0.621  -1.481  -0.422  0.00  0.00    +0.160 C 
ATOM     16  C   LIG    1        0.506  -1.481   0.613  0.00  0.00    +0.090 C 
ENDBRANCH  11  15
ENDBRANCH   1  11
TORSDOF 3
ENDMDL
MODEL       11
REMARK  Name = ZINC000019880408
REMARK                            x       y       z     vdW  Elec       q    Type
REMARK                         _______ _______ _______ _____ _____    ______ ____
ROOT
ATOM      1  C   LIG    1       -2.054  -0.118  -1.242  0.00  0.00    +0.160 C 
ATOM      2  C   LIG    1       -1.303  -0.708  -2.437  0.00  0.00    +0.040 C 
ATOM      3  C   LIG    1       -2.011  -0.307  -3.733  0.00  0.00    +0.030 C 
ATOM      4  C   LIG    1       -3.444  -0.841  -3.718  0.00  0.00    +0.020 C 
ATOM      5  C   LIG    1       -4.196  -0.251  -2.522  0.00  0.00    +0.050 C 
ATOM      6  C   LIG    1       -3.488  -0.652  -1.227  0.00  0.00    +0.010 C 
ENDROOT
BRANCH   6   7
ATOM      7  C   LIG    1       -4.239  -0.062  -0.031  0.00  0.00    -0.080 C 
ATOM      8  C   LIG    1       -3.755   1.367   0.220  0.00  0.00    +0.030 C 
ATOM      9  C   LIG    1       -3.973  -0.916   1.210  0.00  0.00    +0.030 C 
ATOM     10  C   LIG    1       -5.740  -0.048  -0.329  0.00  0.00    +0.060 C 
ENDBRANCH   6   7
BRANCH   1  11
ATOM     11  N   LIG    1       -1.375  -0.504   0.002  0.00  0.00    -0.510 N 
ATOM     12  H   LIG    1       -1.866  -0.109   0.790  0.00  0.00    +0.420 HD
ATOM     13  H   LIG    1       -1.364  -1.510   0.082  0.00  0.00    +0.420 HD
BRANCH  11  15
ATOM     14  C   LIG    1       -0.011   1.530  -0.012  0.00  0.00    +0.090 C 
ATOM     15  C   LIG    1        0.005   0.000  -0.017  0.00  0.00    +0.150 C 
ATOM     16  C   LIG    1        0.750  -0.506   1.220  0.00  0.00    +0.090 C 
ENDBRANCH  11  15
ENDBRANCH   1  11
TORSDOF 3
ENDMDL
MODEL       12
REMARK  Name = ZINC000019882850
REMARK                            x       y       z     vdW  Elec       q    Type
REMARK                         _______ _______ _______ _____ _____    ______ ____
ROOT
ATOM      1  C   LIG    1       -3.516  -0.583  -1.247  0.00  0.00    +0.260 C 
ATOM      2  C   LIG    1       -3.610  -2.093  -1.020  0.00  0.00    +0.100 C 
ENDROOT
BRANCH   1   3
ATOM      3  C   LIG    1       -4.087  -0.242  -2.600  0.00  0.00    -0.280 A 
ATOM      4  C   LIG    1       -5.309   0.247  -2.818  0.00  0.00    +0.090 A 
ATOM      5  C   LIG    1       -5.614   0.484  -4.147  0.00  0.00    +0.010 A 
ATOM      6  C   LIG    1       -4.639   0.188  -5.008  0.00  0.00    -0.120 A 
ATOM      7  C   LIG    1       -4.721   0.355  -6.504  0.00  0.00    +0.160 C 
ATOM      8  S   LIG    1       -3.241  -0.420  -4.132  0.00  0.00    +0.100 S 
ENDBRANCH   1   3
BRANCH   1   9
ATOM      9  N   LIG    1       -2.108  -0.165  -1.191  0.00  0.00    -0.510 N 
ATOM     10  H   LIG    1       -1.701  -0.475  -0.321  0.00  0.00    +0.430 HD
ATOM     11  H   LIG    1       -1.605  -0.575  -1.963  0.00  0.00    +0.420 HD
BRANCH   9  12
ATOM     12  C   LIG    1       -2.028   1.299  -1.275  0.00  0.00    +0.160 C 
ATOM     13  C   LIG    1       -2.664   1.917  -0.028  0.00  0.00    +0.090 C 
BRANCH  12  15
ATOM     14  C   LIG    1        0.040   1.210  -2.674  0.00  0.00    +0.030 C 
ATOM     15  C   LIG    1       -0.561   1.725  -1.365  0.00  0.00    +0.050 C 
ENDBRANCH  12  15
ENDBRANCH   9  12
ENDBRANCH   1   9
TORSDOF 4
ENDMDL
MODEL       13
REMARK  Name = ZINC000019883750
REMARK                            x       y       z     vdW  Elec       q    Type
REMARK                         _______ _______ _______ _____ _____    ______ ____
ROOT
ATOM      1  N   LIG    1       -2.140   0.062   1.188  0.00  0.00    -0.510 N 
ATOM      2  H   LIG    1       -1.684  -0.207   2.047  0.00  0.00    +0.420 HD
ATOM      3  H   LIG    1       -3.059  -0.351   1.151  0.00  0.00    +0.420 HD
ENDROOT
BRANCH   1   4
ATOM      4  C   LIG    1       -2.258   1.526   1.134  0.00  0.00    +0.160 C 
ATOM      5  C   LIG    1       -3.078   1.926  -0.094  0.00  0.00    +0.060 C 
ATOM      6  C   LIG    1       -4.473   1.305   0.000  0.00  0.00    +0.020 C 
ATOM      7  C   LIG    1       -5.171   1.808   1.266  0.00  0.00    -0.010 C 
ATOM      8  C   LIG    1       -4.350   1.407   2.494  0.00  0.00    +0.030 C 
ATOM      9  C   LIG    1       -2.955   2.028   2.399  0.00  0.00    +0.060 C 
BRANCH   7  10
ATOM     10  C   LIG    1       -6.566   1.186   1.360  0.00  0.00    +0.010 C 
ATOM     11  C   LIG    1       -7.310   1.783   2.556  0.00  0.00    +0.020 C 
ENDBRANCH   7  10
ENDBRANCH   1   4
BRANCH   1  12
ATOM     12  C   LIG    1       -1.346  -0.407   0.044  0.00  0.00    +0.160 C 
BRANCH  12  14
ATOM     13  C   LIG    1        0.891  -0.300  -1.063  0.00  0.00    +0.060 C 
ATOM     14  C   LIG    1        0.091   0.101   0.178  0.00  0.00    +0.040 C 
ENDBRANCH  12  14
BRANCH  12  15
ATOM     15  C   LIG    1       -1.345  -1.937   0.018  0.00  0.00    +0.060 C 
ATOM     16  C   LIG    1       -2.766  -2.444  -0.240  0.00  0.00    +0.040 C 
ENDBRANCH  12  15
ENDBRANCH   1  12
TORSDOF 5
ENDMDL
MODEL       14
REMARK  Name = ZINC000019882786
REMARK                            x       y       z     vdW  Elec       q    Type
REMARK                         _______ _______ _______ _____ _____    ______ ____
ROOT
ATOM      1  C   LIG    1        0.757  -0.519   3.640  0.00  0.00    +0.160 C 
ATOM      2  C   LIG    1        2.048   0.301   3.699  0.00  0.00    +0.040 C 
ATOM      3  C   LIG    1        2.848  -0.095   4.942  0.00  0.00    -0.010 C 
ATOM      4  C   LIG    1        2.012   0.177   6.195  0.00  0.00    +0.030 C 
ATOM      5  C   LIG    1        0.722  -0.643   6.136  0.00  0.00    -0.050 C 
ATOM      6  C   LIG    1       -0.114  -0.370   7.388  0.00  0.00    +0.040 C 
ATOM      7  C   LIG    1        1.067  -2.132   6.067  0.00  0.00    +0.030 C 
ATOM      8  C   LIG    1        4.138   0.725   5.001  0.00  0.00    +0.040 C 
ATOM      9  C   LIG    1       -0.078  -0.247   4.893  0.00  0.00    +0.050 C 
ENDROOT
BRANCH   1  10
ATOM     10  N   LIG    1       -0.010  -0.139   2.447  0.00  0.00    -0.510 N 
ATOM     11  H   LIG    1       -0.898  -0.619   2.451  0.00  0.00    +0.420 HD
ATOM     12  H   LIG    1       -0.167   0.858   2.452  0.00  0.00    +0.420 HD
BRANCH  10  13
ATOM     13  C   LIG    1        0.742  -0.511   1.242  0.00  0.00    +0.160 C 
ATOM     14  C   LIG    1        0.872  -2.034   1.171  0.00  0.00    +0.090 C 
BRANCH  13  16
ATOM     15  C   LIG    1       -0.019   1.526   0.010  0.00  0.00    +0.030 C 
ATOM     16  C   LIG    1        0.002  -0.004   0.002  0.00  0.00    +0.050 C 
ENDBRANCH  13  16
ENDBRANCH  10  13
ENDBRANCH   1  10
TORSDOF 3
ENDMDL
MODEL       15
REMARK  Name = ZINC000019882018
REMARK                            x       y       z     vdW  Elec       q    Type
REMARK                         _______ _______ _______ _____ _____    ______ ____
ROOT
ATOM      1  C   LIG    1        0.819  -0.229  -1.064  0.00  0.00    +0.230 C 
ENDROOT
BRANCH   1   2
ATOM      2  C   LIG    1        0.521  -1.705  -1.114  0.00  0.00    -0.140 A 
ATOM      3  C   LIG    1        1.407  -2.608  -0.559  0.00  0.00    +0.000 A 
ATOM      4  C   LIG    1        1.134  -3.963  -0.605  0.00  0.00    +0.040 A 
ATOM      5  C   LIG    1       -0.026  -4.414  -1.206  0.00  0.00    +0.050 A 
ATOM      6  C   LIG    1       -0.913  -3.510  -1.761  0.00  0.00    +0.040 A 
ATOM      7  C   LIG    1       -0.642  -2.156  -1.711  0.00  0.00    +0.040 A 
ENDBRANCH   1   2
BRANCH   1   8
ATOM      8  N   LIG    1        2.248  -0.009  -1.320  0.00  0.00    -0.510 N 
ATOM      9  H   LIG    1        2.794  -0.537  -0.656  0.00  0.00    +0.420 HD
ATOM     10  H   LIG    1        2.460   0.973  -1.224  0.00  0.00    +0.430 HD
BRANCH   8  11
ATOM     11  C   LIG    1        2.575  -0.449  -2.683  0.00  0.00    +0.160 C 
ATOM     12  C   LIG    1        1.849   0.442  -3.694  0.00  0.00    +0.090 C 
BRANCH  11  13
ATOM     13  C   LIG    1        4.085  -0.345  -2.904  0.00  0.00    +0.050 C 
ATOM     14  C   LIG    1        4.805  -1.328  -1.978  0.00  0.00    +0.030 C 
ENDBRANCH  11  13
ENDBRANCH   8  11
ENDBRANCH   1   8
BRANCH   1  16
ATOM     15  C   LIG    1        0.652   1.835   0.334  0.00  0.00    +0.030 C 
ATOM     16  C   LIG    1        0.459   0.318   0.319  0.00  0.00    +0.060 C 
ENDBRANCH   1  16
TORSDOF 5
ENDMDL
MODEL       16
REMARK  Name = ZINC000019882783
REMARK                            x       y       z     vdW  Elec       q    Type
REMARK                         _______ _______ _______ _____ _____    ______ ____
ROOT
ATOM      1  C   LIG    1        0.623  -0.503   3.655  0.00  0.00    +0.160 C 
ATOM      2  C   LIG    1        0.781  -2.023   3.676  0.00  0.00    +0.050 C 
ATOM      3  C   LIG    1        1.518  -2.471   4.930  0.00  0.00    +0.010 C 
ATOM      4  C   LIG    1        0.918  -1.915   6.205  0.00  0.00    +0.030 C 
ATOM      5  C   LIG    1        0.526  -0.448   6.164  0.00  0.00    -0.050 C 
ATOM      6  C   LIG    1        1.748   0.452   6.365  0.00  0.00    +0.030 C 
ATOM      7  C   LIG    1       -0.443  -0.180   7.336  0.00  0.00    +0.040 C 
ATOM      8  C   LIG    1        3.009  -2.152   4.821  0.00  0.00    +0.030 C 
ATOM      9  C   LIG    1       -0.192  -0.074   4.873  0.00  0.00    +0.050 C 
ENDROOT
BRANCH   1  10
ATOM     10  N   LIG    1       -0.096  -0.111   2.431  0.00  0.00    -0.510 N 
ATOM     11  H   LIG    1        0.385  -0.481   1.625  0.00  0.00    +0.420 HD
ATOM     12  H   LIG    1       -1.035  -0.479   2.460  0.00  0.00    +0.420 HD
BRANCH  10  13
ATOM     13  C   LIG    1       -0.146   1.354   2.341  0.00  0.00    +0.160 C 
ATOM     14  C   LIG    1        1.270   1.903   2.159  0.00  0.00    +0.090 C 
BRANCH  13  16
ATOM     15  C   LIG    1       -2.454   1.322   1.384  0.00  0.00    +0.030 C 
ATOM     16  C   LIG    1       -1.009   1.763   1.145  0.00  0.00    +0.050 C 
ENDBRANCH  13  16
ENDBRANCH  10  13
ENDBRANCH   1  10
TORSDOF 3
ENDMDL
MODEL       17
REMARK  Name = ZINC000019882014
REMARK                            x       y       z     vdW  Elec       q    Type
REMARK                         _______ _______ _______ _____ _____    ______ ____
ROOT
ATOM      1  C   LIG    1       -3.226  -0.503  -0.422  0.00  0.00    +0.220 C 
ENDROOT
BRANCH   1   2
ATOM      2  C   LIG    1       -4.126  -0.026  -1.532  0.00  0.00    -0.130 A 
ATOM      3  C   LIG    1       -3.843   1.155  -2.193  0.00  0.00    +0.000 A 
ATOM      4  C   LIG    1       -4.669   1.593  -3.211  0.00  0.00    +0.040 A 
ATOM      5  C   LIG    1       -5.778   0.850  -3.569  0.00  0.00    +0.050 A 
ATOM      6  C   LIG    1       -6.061  -0.332  -2.909  0.00  0.00    +0.040 A 
ATOM      7  C   LIG    1       -5.233  -0.772  -1.894  0.00  0.00    +0.030 A 
ENDBRANCH   1   2
BRANCH   1   8
ATOM      8  N   LIG    1       -1.825  -0.249  -0.784  0.00  0.00    -0.510 N 
ATOM      9  H   LIG    1       -1.730   0.700  -1.113  0.00  0.00    +0.420 HD
ATOM     10  H   LIG    1       -1.238  -0.385   0.025  0.00  0.00    +0.420 HD
BRANCH   8  11
ATOM     11  C   LIG    1       -1.417  -1.178  -1.847  0.00  0.00    +0.170 C 
ATOM     12  C   LIG    1       -2.181  -0.851  -3.131  0.00  0.00    +0.080 C 
BRANCH  11  14
ATOM     13  C   LIG    1        0.854  -1.485  -0.852  0.00  0.00    +0.030 C 
ATOM     14  C   LIG    1        0.086  -1.038  -2.097  0.00  0.00    +0.050 C 
ENDBRANCH  11  14
ENDBRANCH   8  11
ENDBRANCH   1   8
BRANCH   1  15
ATOM     15  C   LIG    1       -3.564   0.247   0.867  0.00  0.00    +0.060 C 
ATOM     16  C   LIG    1       -2.731  -0.318   2.020  0.00  0.00    +0.030 C 
ENDBRANCH   1  15
TORSDOF 5
ENDMDL
MODEL       18
REMARK  Name = ZINC000019882848
REMARK                            x       y       z     vdW  Elec       q    Type
REMARK                         _______ _______ _______ _____ _____    ______ ____
ROOT
ATOM      1  C   LIG    1       -3.518  -0.551  -1.173  0.00  0.00    +0.270 C 
ATOM      2  C   LIG    1       -4.227   0.236  -0.069  0.00  0.00    +0.100 C 
ENDROOT
BRANCH   1   3
ATOM      3  C   LIG    1       -4.180  -0.266  -2.497  0.00  0.00    -0.280 A 
ATOM      4  C   LIG    1       -5.069  -1.058  -3.099  0.00  0.00    +0.090 A 
ATOM      5  C   LIG    1       -5.542  -0.588  -4.312  0.00  0.00    +0.000 A 
ATOM      6  C   LIG    1       -5.037   0.586  -4.695  0.00  0.00    -0.120 A 
ATOM      7  C   LIG    1       -5.389   1.308  -5.970  0.00  0.00    +0.160 C 
ATOM      8  S   LIG    1       -3.903   1.165  -3.482  0.00  0.00    +0.100 S 
ENDBRANCH   1   3
BRANCH   1   9
ATOM      9  N   LIG    1       -2.107  -0.147  -1.234  0.00  0.00    -0.510 N 
ATOM     10  H   LIG    1       -1.660  -0.605  -2.014  0.00  0.00    +0.430 HD
ATOM     11  H   LIG    1       -2.048   0.853  -1.352  0.00  0.00    +0.420 HD
BRANCH   9  12
ATOM     12  C   LIG    1       -1.433  -0.534   0.013  0.00  0.00    +0.160 C 
ATOM     13  C   LIG    1       -1.413  -2.059   0.130  0.00  0.00    +0.090 C 
BRANCH  12  15
ATOM     14  C   LIG    1       -0.019   1.526   0.010  0.00  0.00    +0.030 C 
ATOM     15  C   LIG    1        0.002  -0.004   0.002  0.00  0.00    +0.050 C 
ENDBRANCH  12  15
ENDBRANCH   9  12
ENDBRANCH   1   9
TORSDOF 4
ENDMDL
MODEL       19
REMARK  Name = ZINC000019882012
REMARK                            x       y       z     vdW  Elec       q    Type
REMARK                         _______ _______ _______ _____ _____    ______ ____
ROOT
ATOM      1  C   LIG    1       -3.549  -0.527   0.709  0.00  0.00    +0.230 C 
ENDROOT
BRANCH   1   2
ATOM      2  C   LIG    1       -4.455   0.099   1.737  0.00  0.00    -0.140 A 
ATOM      3  C   LIG    1       -4.085   0.109   3.069  0.00  0.00    +0.000 A 
ATOM      4  C   LIG    1       -4.917   0.683   4.013  0.00  0.00    +0.040 A 
ATOM      5  C   LIG    1       -6.117   1.248   3.624  0.00  0.00    +0.050 A 
ATOM      6  C   LIG    1       -6.486   1.238   2.292  0.00  0.00    +0.040 A 
ATOM      7  C   LIG    1       -5.653   0.668   1.348  0.00  0.00    +0.040 A 
ENDBRANCH   1   2
BRANCH   1   8
ATOM      8  N   LIG    1       -2.152  -0.199   1.022  0.00  0.00    -0.510 N 
ATOM      9  H   LIG    1       -1.947  -0.471   1.972  0.00  0.00    +0.420 HD
ATOM     10  H   LIG    1       -1.540  -0.694   0.391  0.00  0.00    +0.430 HD
BRANCH   8  11
ATOM     11  C   LIG    1       -1.944   1.248   0.871  0.00  0.00    +0.160 C 
ATOM     12  C   LIG    1       -2.109   1.636  -0.599  0.00  0.00    +0.090 C 
BRANCH  11  14
ATOM     13  C   LIG    1       -0.407   1.338   2.839  0.00  0.00    +0.030 C 
ATOM     14  C   LIG    1       -0.533   1.611   1.339  0.00  0.00    +0.050 C 
ENDBRANCH  11  14
ENDBRANCH   8  11
ENDBRANCH   1   8
BRANCH   1  15
ATOM     15  C   LIG    1       -3.731  -2.046   0.725  0.00  0.00    +0.060 C 
ATOM     16  C   LIG    1       -2.875  -2.675  -0.376  0.00  0.00    +0.030 C 
ENDBRANCH   1  15
TORSDOF 5
ENDMDL
MODEL       20
REMARK  Name = ZINC000019883881
REMARK                            x       y       z     vdW  Elec       q    Type
REMARK                         _______ _______ _______ _____ _____    ______ ____
ROOT
ATOM      1  N   LIG    1        0.044   0.112  -2.444  0.00  0.00    -0.510 N 
ATOM      2  H   LIG    1       -0.923  -0.172  -2.485  0.00  0.00    +0.430 HD
ATOM      3  H   LIG    1        0.543  -0.278  -3.230  0.00  0.00    +0.420 HD
ENDROOT
BRANCH   1   4
ATOM      4  C   LIG    1        0.128   1.578  -2.490  0.00  0.00    +0.260 C 
ATOM      5  C   LIG    1        1.595   2.003  -2.578  0.00  0.00    +0.100 C 
BRANCH   4   6
ATOM      6  C   LIG    1       -0.617   2.086  -3.698  0.00  0.00    -0.280 A 
ATOM      7  C   LIG    1       -1.383   3.177  -3.726  0.00  0.00    +0.090 A 
ATOM      8  C   LIG    1       -1.967   3.447  -4.952  0.00  0.00    +0.020 A 
ATOM      9  C   LIG    1       -1.675   2.576  -5.918  0.00  0.00    +0.020 A 
ATOM     10  S   LIG    1       -0.601   1.334  -5.288  0.00  0.00    +0.100 S 
ENDBRANCH   4   6
ENDBRANCH   1   4
BRANCH   1  11
ATOM     11  C   LIG    1        0.644  -0.374  -1.194  0.00  0.00    +0.160 C 
BRANCH  11  13
ATOM     12  C   LIG    1        0.481  -0.320   1.299  0.00  0.00    +0.060 C 
ATOM     13  C   LIG    1       -0.198   0.098  -0.007  0.00  0.00    +0.030 C 
ENDBRANCH  11  13
BRANCH  11  14
ATOM     14  C   LIG    1        0.691  -1.903  -1.211  0.00  0.00    +0.060 C 
ATOM     15  C   LIG    1        1.633  -2.372  -2.321  0.00  0.00    +0.030 C 
ENDBRANCH  11  14
ENDBRANCH   1  11
TORSDOF 5
ENDMDL
MODEL       21
REMARK  Name = ZINC000019901349
REMARK                            x       y       z     vdW  Elec       q    Type
REMARK                         _______ _______ _______ _____ _____    ______ ____
ROOT
ATOM      1  N   LIG    1       -2.828  -4.062   0.007  0.00  0.00    -0.510 N 
ATOM      2  H   LIG    1       -2.340  -4.396   0.825  0.00  0.00    +0.430 HD
ATOM      3  H   LIG    1       -2.356  -4.387  -0.823  0.00  0.00    +0.420 HD
ENDROOT
BRANCH   1   4
ATOM      4  C   LIG    1       -4.206  -4.570   0.018  0.00  0.00    +0.270 C 
ATOM      5  C   LIG    1       -4.908  -4.168  -1.281  0.00  0.00    +0.100 C 
BRANCH   4   6
ATOM      6  C   LIG    1       -4.186  -6.073   0.133  0.00  0.00    -0.280 A 
ATOM      7  C   LIG    1       -5.029  -6.798   0.870  0.00  0.00    +0.090 A 
ATOM      8  C   LIG    1       -4.818  -8.166   0.821  0.00  0.00    +0.020 A 
ATOM      9  C   LIG    1       -3.804  -8.550   0.043  0.00  0.00    +0.020 A 
ATOM     10  S   LIG    1       -3.054  -7.138  -0.689  0.00  0.00    +0.110 S 
ENDBRANCH   4   6
ENDBRANCH   1   4
BRANCH   1  11
ATOM     11  C   LIG    1       -2.848  -2.593   0.015  0.00  0.00    +0.260 C 
BRANCH  11  12
ATOM     12  C   LIG    1       -1.413  -2.063   0.004  0.00  0.00    +0.030 C 
BRANCH  12  13
ATOM     13  C   LIG    1       -1.433  -0.534   0.013  0.00  0.00    +0.020 C 
BRANCH  13  15
ATOM     14  C   LIG    1       -0.019   1.526   0.010  0.00  0.00    +0.020 C 
ATOM     15  C   LIG    1        0.002  -0.004   0.002  0.00  0.00    +0.010 C 
ENDBRANCH  13  15
ENDBRANCH  12  13
ENDBRANCH  11  12
ENDBRANCH   1  11
TORSDOF 6
ENDMDL
MODEL       22
REMARK  Name = ZINC000019883883
REMARK                            x       y       z     vdW  Elec       q    Type
REMARK                         _______ _______ _______ _____ _____    ______ ____
ROOT
ATOM      1  N   LIG    1       -0.710  -1.207  -1.920  0.00  0.00    -0.510 N 
ATOM      2  H   LIG    1       -1.487  -1.535  -1.366  0.00  0.00    +0.420 HD
ATOM      3  H   LIG    1       -0.359  -1.964  -2.487  0.00  0.00    +0.430 HD
ENDROOT
BRANCH   1   4
ATOM      4  C   LIG    1       -1.155  -0.110  -2.788  0.00  0.00    +0.270 C 
ATOM      5  C   LIG    1       -1.722   1.023  -1.929  0.00  0.00    +0.100 C 
BRANCH   4   6
ATOM      6  C   LIG    1       -2.223  -0.612  -3.725  0.00  0.00    -0.280 A 
ATOM      7  C   LIG    1       -2.332  -0.284  -5.014  0.00  0.00    +0.090 A 
ATOM      8  C   LIG    1       -3.396  -0.871  -5.677  0.00  0.00    +0.020 A 
ATOM      9  C   LIG    1       -4.150  -1.676  -4.928  0.00  0.00    +0.020 A 
ATOM     10  S   LIG    1       -3.511  -1.727  -3.290  0.00  0.00    +0.100 S 
ENDBRANCH   4   6
ENDBRANCH   1   4
BRANCH   1  11
ATOM     11  C   LIG    1        0.357  -0.727  -1.031  0.00  0.00    +0.160 C 
BRANCH  11  13
ATOM     12  C   LIG    1       -0.489  -2.018   0.933  0.00  0.00    +0.040 C 
ATOM     13  C   LIG    1        0.698  -1.814  -0.010  0.00  0.00    +0.050 C 
ENDBRANCH  11  13
BRANCH  11  14
ATOM     14  C   LIG    1        1.600  -0.396  -1.859  0.00  0.00    +0.050 C 
ATOM     15  C   LIG    1        1.582   1.087  -2.237  0.00  0.00    +0.030 C 
ENDBRANCH  11  14
ENDBRANCH   1  11
TORSDOF 5
ENDMDL
MODEL       23
REMARK  Name = ZINC000019901305
REMARK                            x       y       z     vdW  Elec       q    Type
REMARK                         _______ _______ _______ _____ _____    ______ ____
ROOT
ATOM      1  N   LIG    1        1.523  -4.016   2.465  0.00  0.00    -0.510 N 
ATOM      2  H   LIG    1        1.995  -4.342   1.634  0.00  0.00    +0.430 HD
ATOM      3  H   LIG    1        0.576  -4.366   2.472  0.00  0.00    +0.420 HD
ENDROOT
BRANCH   1   4
ATOM      4  C   LIG    1        2.233  -4.503   3.655  0.00  0.00    +0.220 C 
ATOM      5  C   LIG    1        1.450  -4.116   4.910  0.00  0.00    +0.090 C 
BRANCH   4   6
ATOM      6  C   LIG    1        2.361  -6.003   3.585  0.00  0.00    -0.150 A 
ATOM      7  C   LIG    1        1.308  -6.765   3.115  0.00  0.00    +0.000 A 
ATOM      8  C   LIG    1        1.426  -8.141   3.051  0.00  0.00    +0.040 A 
ATOM      9  C   LIG    1        2.596  -8.755   3.457  0.00  0.00    +0.050 A 
ATOM     10  C   LIG    1        3.649  -7.992   3.926  0.00  0.00    +0.030 A 
ATOM     11  C   LIG    1        3.533  -6.616   3.986  0.00  0.00    +0.040 A 
ENDBRANCH   4   6
ENDBRANCH   1   4
BRANCH   1  12
ATOM     12  C   LIG    1        1.503  -2.548   2.473  0.00  0.00    +0.250 C 
BRANCH  12  13
ATOM     13  C   LIG    1        0.763  -2.041   1.233  0.00  0.00    +0.030 C 
BRANCH  13  14
ATOM     14  C   LIG    1        0.742  -0.511   1.242  0.00  0.00    +0.020 C 
BRANCH  14  16
ATOM     15  C   LIG    1       -0.019   1.526   0.010  0.00  0.00    +0.020 C 
ATOM     16  C   LIG    1        0.002  -0.004   0.002  0.00  0.00    +0.010 C 
ENDBRANCH  14  16
ENDBRANCH  13  14
ENDBRANCH  12  13
ENDBRANCH   1  12
TORSDOF 6
ENDMDL
MODEL       24
REMARK  Name = ZINC000019995556
REMARK                            x       y       z     vdW  Elec       q    Type
REMARK                         _______ _______ _______ _____ _____    ______ ____
ROOT
ATOM      1  N   LIG    1        1.348  -2.555   2.503  0.00  0.00    -0.510 N 
ATOM      2  H   LIG    1        0.751  -2.325   3.283  0.00  0.00    +0.420 HD
ATOM      3  H   LIG    1        2.254  -2.132   2.636  0.00  0.00    +0.420 HD
ENDROOT
BRANCH   1   4
ATOM      4  C   LIG    1        1.496  -4.013   2.411  0.00  0.00    +0.160 C 
ATOM      5  C   LIG    1        1.982  -4.562   3.755  0.00  0.00    +0.040 C 
ATOM      6  C   LIG    1        2.136  -6.081   3.660  0.00  0.00    +0.040 C 
ATOM      7  C   LIG    1        3.155  -6.423   2.571  0.00  0.00    +0.020 C 
ATOM      8  C   LIG    1        2.670  -5.875   1.228  0.00  0.00    +0.040 C 
ATOM      9  C   LIG    1        2.515  -4.355   1.323  0.00  0.00    -0.020 C 
ATOM     10  C   LIG    1        3.865  -3.726   1.672  0.00  0.00    +0.040 C 
ENDBRANCH   1   4
BRANCH   1  11
ATOM     11  C   LIG    1        0.748  -2.045   1.262  0.00  0.00    +0.160 C 
ATOM     12  C   LIG    1       -0.679  -2.580   1.128  0.00  0.00    +0.090 C 
BRANCH  11  13
ATOM     13  C   LIG    1        0.718  -0.516   1.301  0.00  0.00    -0.010 C 
ATOM     14  C   LIG    1        2.144   0.020   1.436  0.00  0.00    +0.040 C 
BRANCH  13  16
ATOM     15  C   LIG    1       -0.052   1.536   0.100  0.00  0.00    +0.030 C 
ATOM     16  C   LIG    1        0.093   0.015   0.009  0.00  0.00    +0.030 C 
ENDBRANCH  13  16
ENDBRANCH  11  13
ENDBRANCH   1  11
TORSDOF 4
ENDMDL
MODEL       25
REMARK  Name = ZINC000020003468
REMARK                            x       y       z     vdW  Elec       q    Type
REMARK                         _______ _______ _______ _____ _____    ______ ____
ROOT
ATOM      1  N   LIG    1        1.537  -2.495  -2.414  0.00  0.00    -0.510 N 
ATOM      2  H   LIG    1        2.456  -2.078  -2.405  0.00  0.00    +0.430 HD
ATOM      3  H   LIG    1        1.054  -2.227  -3.258  0.00  0.00    +0.420 HD
ENDROOT
BRANCH   1   4
ATOM      4  C   LIG    1        1.663  -3.958  -2.364  0.00  0.00    +0.160 C 
ATOM      5  C   LIG    1        0.311  -4.588  -2.561  0.00  0.00    +0.020 C 
ATOM      6  C   LIG    1        0.145  -5.892  -1.757  0.00  0.00    +0.030 C 
ATOM      7  C   LIG    1        1.402  -6.782  -1.797  0.00  0.00    +0.000 C 
ATOM      8  C   LIG    1        2.024  -6.839  -3.167  0.00  0.00    +0.020 C 
ATOM      9  C   LIG    1        3.130  -5.767  -3.247  0.00  0.00    +0.020 C 
ATOM     10  C   LIG    1        2.596  -4.436  -3.495  0.00  0.00    +0.040 C 
ENDBRANCH   1   4
BRANCH   1  11
ATOM     11  C   LIG    1        0.777  -2.029  -1.246  0.00  0.00    +0.160 C 
ATOM     12  C   LIG    1        1.579  -2.304   0.028  0.00  0.00    +0.090 C 
BRANCH  11  13
ATOM     13  C   LIG    1        0.519  -0.526  -1.372  0.00  0.00    -0.010 C 
ATOM     14  C   LIG    1       -0.283  -0.251  -2.646  0.00  0.00    +0.040 C 
BRANCH  13  16
ATOM     15  C   LIG    1       -0.422   1.481  -0.219  0.00  0.00    +0.030 C 
ATOM     16  C   LIG    1       -0.273  -0.040  -0.156  0.00  0.00    +0.030 C 
ENDBRANCH  13  16
ENDBRANCH  11  13
ENDBRANCH   1  11
TORSDOF 4
ENDMDL
MODEL       26
REMARK  Name = ZINC000238855109
REMARK                            x       y       z     vdW  Elec       q    Type
REMARK                         _______ _______ _______ _____ _____    ______ ____
ROOT
ATOM      1  N   LIG    1        1.506  -2.279   0.096  0.00  0.00    -0.510 N 
ATOM      2  H   LIG    1        2.416  -1.863   0.231  0.00  0.00    +0.420 HD
ATOM      3  H   LIG    1        1.066  -1.870  -0.714  0.00  0.00    +0.420 HD
ENDROOT
BRANCH   1   4
ATOM      4  C   LIG    1        1.655  -3.727  -0.107  0.00  0.00    +0.160 C 
ATOM      5  C   LIG    1        2.410  -4.333   1.078  0.00  0.00    +0.040 C 
ATOM      6  C   LIG    1        2.565  -5.840   0.868  0.00  0.00    +0.040 C 
ATOM      7  C   LIG    1        3.349  -6.097  -0.421  0.00  0.00    +0.020 C 
ATOM      8  C   LIG    1        2.594  -5.491  -1.606  0.00  0.00    +0.010 C 
ATOM      9  C   LIG    1        1.211  -6.136  -1.714  0.00  0.00    +0.030 C 
ATOM     10  C   LIG    1        2.439  -3.983  -1.395  0.00  0.00    -0.010 C 
ATOM     11  C   LIG    1        1.684  -3.378  -2.580  0.00  0.00    +0.050 C 
ENDBRANCH   1   4
BRANCH   1  12
ATOM     12  C   LIG    1        0.675  -2.034   1.282  0.00  0.00    +0.160 C 
ATOM     13  C   LIG    1        1.140  -0.751   1.974  0.00  0.00    +0.090 C 
BRANCH  12  14
ATOM     14  C   LIG    1       -0.787  -1.883   0.857  0.00  0.00    +0.050 C 
BRANCH  14  16
ATOM     15  C   LIG    1       -2.809  -3.113   0.057  0.00  0.00    +0.030 C 
ATOM     16  C   LIG    1       -1.310  -3.226   0.344  0.00  0.00    -0.000 C 
ENDBRANCH  14  16
ENDBRANCH  12  14
ENDBRANCH   1  12
TORSDOF 4
ENDMDL
MODEL       27
REMARK  Name = ZINC000037021713
REMARK                            x       y       z     vdW  Elec       q    Type
REMARK                         _______ _______ _______ _____ _____    ______ ____
ROOT
ATOM      1  N   LIG    1        1.583  -2.462   0.073  0.00  0.00    -0.510 N 
ATOM      2  H   LIG    1        1.111  -2.183   0.920  0.00  0.00    +0.420 HD
ATOM      3  H   LIG    1        2.535  -2.126   0.092  0.00  0.00    +0.420 HD
ENDROOT
BRANCH   1   4
ATOM      4  C   LIG    1        1.583  -3.927  -0.029  0.00  0.00    +0.160 C 
ATOM      5  C   LIG    1        2.175  -4.527   1.247  0.00  0.00    +0.040 C 
ATOM      6  C   LIG    1        2.175  -6.053   1.141  0.00  0.00    +0.040 C 
ATOM      7  C   LIG    1        3.018  -6.481  -0.062  0.00  0.00    +0.020 C 
ATOM      8  C   LIG    1        2.425  -5.881  -1.339  0.00  0.00    +0.000 C 
ATOM      9  C   LIG    1        3.268  -6.309  -2.542  0.00  0.00    +0.030 C 
ATOM     10  C   LIG    1        2.426  -4.355  -1.233  0.00  0.00    -0.010 C 
ATOM     11  C   LIG    1        3.861  -3.857  -1.053  0.00  0.00    +0.040 C 
ENDBRANCH   1   4
BRANCH   1  12
ATOM     12  C   LIG    1        0.886  -1.890  -1.087  0.00  0.00    +0.160 C 
ATOM     13  C   LIG    1       -0.590  -2.288  -1.042  0.00  0.00    +0.090 C 
BRANCH  12  14
ATOM     14  C   LIG    1        1.004  -0.365  -1.052  0.00  0.00    +0.050 C 
BRANCH  14  16
ATOM     15  C   LIG    1        2.588   1.563  -1.187  0.00  0.00    +0.040 C 
ATOM     16  C   LIG    1        2.470   0.038  -1.222  0.00  0.00    -0.010 C 
ENDBRANCH  14  16
ENDBRANCH  12  14
ENDBRANCH   1  12
TORSDOF 4
ENDMDL
MODEL       28
REMARK  Name = ZINC000019963362
REMARK                            x       y       z     vdW  Elec       q    Type
REMARK                         _______ _______ _______ _____ _____    ______ ____
ROOT
ATOM      1  N   LIG    1        1.502  -2.286   0.098  0.00  0.00    -0.510 N 
ATOM      2  H   LIG    1        2.413  -1.872   0.229  0.00  0.00    +0.420 HD
ATOM      3  H   LIG    1        1.059  -1.877  -0.711  0.00  0.00    +0.420 HD
ENDROOT
BRANCH   1   4
ATOM      4  C   LIG    1        1.645  -3.734  -0.101  0.00  0.00    +0.170 C 
ATOM      5  C   LIG    1        2.400  -4.340   1.084  0.00  0.00    +0.060 C 
ATOM      6  C   LIG    1        3.786  -3.699   1.187  0.00  0.00    +0.020 C 
ATOM      7  C   LIG    1        4.566  -3.961  -0.103  0.00  0.00    +0.030 C 
ATOM      8  C   LIG    1        3.811  -3.356  -1.288  0.00  0.00    -0.040 C 
ATOM      9  C   LIG    1        4.592  -3.618  -2.577  0.00  0.00    +0.040 C 
ATOM     10  C   LIG    1        2.426  -3.996  -1.391  0.00  0.00    +0.010 C 
ATOM     11  C   LIG    1        1.671  -3.390  -2.576  0.00  0.00    +0.040 C 
ENDBRANCH   1   4
BRANCH   1  12
ATOM     12  C   LIG    1        0.675  -2.035   1.287  0.00  0.00    +0.160 C 
ATOM     13  C   LIG    1        1.147  -0.752   1.974  0.00  0.00    +0.090 C 
BRANCH  12  14
ATOM     14  C   LIG    1       -0.788  -1.880   0.867  0.00  0.00    +0.060 C 
BRANCH  14  16
ATOM     15  C   LIG    1       -2.816  -3.104   0.074  0.00  0.00    +0.030 C 
ATOM     16  C   LIG    1       -1.317  -3.222   0.358  0.00  0.00    -0.000 C 
ENDBRANCH  14  16
ENDBRANCH  12  14
ENDBRANCH   1  12
TORSDOF 4
ENDMDL
MODEL       29
REMARK  Name = ZINC000238855107
REMARK                            x       y       z     vdW  Elec       q    Type
REMARK                         _______ _______ _______ _____ _____    ______ ____
ROOT
ATOM      1  N   LIG    1        1.507  -2.280   0.096  0.00  0.00    -0.510 N 
ATOM      2  H   LIG    1        2.416  -1.864   0.231  0.00  0.00    +0.420 HD
ATOM      3  H   LIG    1        1.066  -1.871  -0.714  0.00  0.00    +0.420 HD
ENDROOT
BRANCH   1   4
ATOM      4  C   LIG    1        1.655  -3.728  -0.106  0.00  0.00    +0.160 C 
ATOM      5  C   LIG    1        2.409  -4.333   1.079  0.00  0.00    +0.040 C 
ATOM      6  C   LIG    1        2.564  -5.841   0.869  0.00  0.00    +0.040 C 
ATOM      7  C   LIG    1        3.348  -6.098  -0.419  0.00  0.00    +0.020 C 
ATOM      8  C   LIG    1        2.594  -5.492  -1.605  0.00  0.00    +0.000 C 
ATOM      9  C   LIG    1        3.377  -5.750  -2.893  0.00  0.00    +0.030 C 
ATOM     10  C   LIG    1        2.439  -3.985  -1.394  0.00  0.00    -0.010 C 
ATOM     11  C   LIG    1        1.685  -3.379  -2.580  0.00  0.00    +0.040 C 
ENDBRANCH   1   4
BRANCH   1  12
ATOM     12  C   LIG    1        0.675  -2.034   1.282  0.00  0.00    +0.160 C 
ATOM     13  C   LIG    1        1.140  -0.751   1.974  0.00  0.00    +0.090 C 
BRANCH  12  14
ATOM     14  C   LIG    1       -0.787  -1.883   0.857  0.00  0.00    +0.050 C 
BRANCH  14  16
ATOM     15  C   LIG    1       -2.809  -3.113   0.057  0.00  0.00    +0.030 C 
ATOM     16  C   LIG    1       -1.310  -3.226   0.344  0.00  0.00    -0.000 C 
ENDBRANCH  14  16
ENDBRANCH  12  14
ENDBRANCH   1  12
TORSDOF 4
ENDMDL
MODEL       30
REMARK  Name = ZINC000020306223
REMARK                            x       y       z     vdW  Elec       q    Type
REMARK                         _______ _______ _______ _____ _____    ______ ____
ROOT
ATOM      1  C   LIG    1        0.742  -0.511   1.242  0.00  0.00    -0.010 C 
ATOM      2  C   LIG    1       -0.042  -0.124   2.497  0.00  0.00    +0.020 C 
ATOM      3  C   LIG    1        0.698  -0.630   3.737  0.00  0.00    +0.060 C 
ATOM      4  C   LIG    1        0.828  -2.153   3.666  0.00  0.00    +0.170 C 
ATOM      5  C   LIG    1        1.612  -2.541   2.410  0.00  0.00    +0.060 C 
ATOM      6  C   LIG    1        0.872  -2.034   1.171  0.00  0.00    +0.020 C 
ENDROOT
BRANCH   4   7
ATOM      7  N   LIG    1       -0.510  -2.757   3.614  0.00  0.00    -0.510 N 
ATOM      8  H   LIG    1       -0.967  -2.488   2.755  0.00  0.00    +0.420 HD
ATOM      9  H   LIG    1       -1.055  -2.436   4.400  0.00  0.00    +0.420 HD
BRANCH   7  10
ATOM     10  C   LIG    1       -0.390  -4.220   3.667  0.00  0.00    +0.160 C 
ATOM     11  C   LIG    1        0.189  -4.636   5.021  0.00  0.00    +0.080 C 
BRANCH  10  12
ATOM     12  C   LIG    1       -1.771  -4.852   3.487  0.00  0.00    -0.020 C 
ATOM     13  C   LIG    1       -2.699  -4.376   4.606  0.00  0.00    +0.040 C 
ATOM     14  C   LIG    1       -1.646  -6.376   3.542  0.00  0.00    +0.070 C 
ENDBRANCH  10  12
ENDBRANCH   7  10
ENDBRANCH   4   7
BRANCH   1  16
ATOM     15  C   LIG    1       -0.019   1.526   0.010  0.00  0.00    +0.020 C 
ATOM     16  C   LIG    1        0.002  -0.004   0.002  0.00  0.00    +0.010 C 
ENDBRANCH   1  16
TORSDOF 4
ENDMDL
MODEL       31
REMARK  Name = ZINC000020564814
REMARK                            x       y       z     vdW  Elec       q    Type
REMARK                         _______ _______ _______ _____ _____    ______ ____
ROOT
ATOM      1  C   LIG    1        0.739  -2.027  -1.265  0.00  0.00    -0.010 C 
ATOM      2  C   LIG    1       -0.692  -2.556  -1.380  0.00  0.00    +0.020 C 
ATOM      3  C   LIG    1       -0.671  -4.086  -1.389  0.00  0.00    +0.060 C 
ATOM      4  C   LIG    1        0.151  -4.578  -2.581  0.00  0.00    +0.160 C 
ATOM      5  C   LIG    1        1.583  -4.050  -2.466  0.00  0.00    +0.060 C 
ATOM      6  C   LIG    1        1.562  -2.520  -2.457  0.00  0.00    +0.020 C 
ENDROOT
BRANCH   4   7
ATOM      7  N   LIG    1       -0.452  -4.090  -3.828  0.00  0.00    -0.510 N 
ATOM      8  H   LIG    1       -0.392  -3.083  -3.859  0.00  0.00    +0.420 HD
ATOM      9  H   LIG    1       -1.421  -4.370  -3.864  0.00  0.00    +0.420 HD
BRANCH   7  10
ATOM     10  C   LIG    1        0.266  -4.660  -4.976  0.00  0.00    +0.160 C 
ATOM     11  C   LIG    1        0.070  -6.177  -4.998  0.00  0.00    +0.090 C 
BRANCH  10  12
ATOM     12  C   LIG    1       -0.281  -4.056  -6.270  0.00  0.00    +0.050 C 
ATOM     13  C   LIG    1        0.026  -2.557  -6.304  0.00  0.00    +0.030 C 
ENDBRANCH  10  12
ENDBRANCH   7  10
ENDBRANCH   4   7
BRANCH   1  14
ATOM     14  C   LIG    1        0.718  -0.497  -1.257  0.00  0.00    +0.010 C 
BRANCH  14  16
ATOM     15  C   LIG    1       -0.019   1.526   0.010  0.00  0.00    +0.010 C 
ATOM     16  C   LIG    1        0.002  -0.004   0.002  0.00  0.00    -0.010 C 
ENDBRANCH  14  16
ENDBRANCH   1  14
TORSDOF 5
ENDMDL
MODEL       32
REMARK  Name = ZINC000021049938
REMARK                            x       y       z     vdW  Elec       q    Type
REMARK                         _______ _______ _______ _____ _____    ______ ____
ROOT
ATOM      1  N   LIG    1        1.523  -4.016   2.465  0.00  0.00    -0.510 N 
ATOM      2  H   LIG    1        1.995  -4.342   1.634  0.00  0.00    +0.430 HD
ATOM      3  H   LIG    1        0.576  -4.366   2.472  0.00  0.00    +0.420 HD
ENDROOT
BRANCH   1   4
ATOM      4  C   LIG    1        2.233  -4.503   3.655  0.00  0.00    +0.170 C 
ATOM      5  C   LIG    1        1.450  -4.116   4.910  0.00  0.00    +0.060 C 
ATOM      6  C   LIG    1        0.056  -4.745   4.856  0.00  0.00    +0.020 C 
ATOM      7  C   LIG    1        0.186  -6.267   4.785  0.00  0.00    -0.010 C 
ATOM      8  C   LIG    1        0.969  -6.655   3.530  0.00  0.00    +0.020 C 
ATOM      9  C   LIG    1        2.363  -6.026   3.584  0.00  0.00    +0.060 C 
BRANCH   7  10
ATOM     10  C   LIG    1       -1.208  -6.896   4.731  0.00  0.00    +0.010 C 
ATOM     11  C   LIG    1       -1.083  -8.420   4.786  0.00  0.00    +0.020 C 
ENDBRANCH   7  10
ENDBRANCH   1   4
BRANCH   1  12
ATOM     12  C   LIG    1        1.503  -2.548   2.473  0.00  0.00    +0.250 C 
BRANCH  12  13
ATOM     13  C   LIG    1        0.763  -2.041   1.233  0.00  0.00    +0.030 C 
BRANCH  13  14
ATOM     14  C   LIG    1        0.742  -0.511   1.242  0.00  0.00    +0.020 C 
BRANCH  14  16
ATOM     15  C   LIG    1       -0.019   1.526   0.010  0.00  0.00    +0.020 C 
ATOM     16  C   LIG    1        0.002  -0.004   0.002  0.00  0.00    +0.010 C 
ENDBRANCH  14  16
ENDBRANCH  13  14
ENDBRANCH  12  13
ENDBRANCH   1  12
TORSDOF 6
ENDMDL
MODEL       33
REMARK  Name = ZINC000021818116
REMARK                            x       y       z     vdW  Elec       q    Type
REMARK                         _______ _______ _______ _____ _____    ______ ____
ROOT
ATOM      1  C   LIG    1        0.742  -0.511   1.242  0.00  0.00    -0.010 C 
ATOM      2  C   LIG    1       -0.042  -0.124   2.497  0.00  0.00    +0.020 C 
ATOM      3  C   LIG    1        0.698  -0.630   3.737  0.00  0.00    +0.060 C 
ATOM      4  C   LIG    1        0.828  -2.153   3.666  0.00  0.00    +0.170 C 
ATOM      5  C   LIG    1        1.612  -2.541   2.410  0.00  0.00    +0.060 C 
ATOM      6  C   LIG    1        0.872  -2.034   1.171  0.00  0.00    +0.020 C 
ENDROOT
BRANCH   4   7
ATOM      7  N   LIG    1       -0.510  -2.757   3.614  0.00  0.00    -0.510 N 
ATOM      8  H   LIG    1       -0.967  -2.488   2.755  0.00  0.00    +0.420 HD
ATOM      9  H   LIG    1       -1.055  -2.436   4.400  0.00  0.00    +0.430 HD
BRANCH   7  10
ATOM     10  C   LIG    1       -0.390  -4.220   3.667  0.00  0.00    +0.240 C 
BRANCH  10  11
ATOM     11  C   LIG    1       -1.783  -4.849   3.612  0.00  0.00    +0.030 C 
BRANCH  11  12
ATOM     12  C   LIG    1       -1.658  -6.373   3.667  0.00  0.00    -0.010 C 
ATOM     13  C   LIG    1       -3.039  -7.005   3.487  0.00  0.00    +0.040 C 
ATOM     14  C   LIG    1       -1.079  -6.788   5.021  0.00  0.00    +0.020 C 
ENDBRANCH  11  12
ENDBRANCH  10  11
ENDBRANCH   7  10
ENDBRANCH   4   7
BRANCH   1  16
ATOM     15  C   LIG    1       -0.019   1.526   0.010  0.00  0.00    +0.020 C 
ATOM     16  C   LIG    1        0.002  -0.004   0.002  0.00  0.00    +0.010 C 
ENDBRANCH   1  16
TORSDOF 5
ENDMDL
MODEL       34
REMARK  Name = ZINC000019878872
REMARK                            x       y       z     vdW  Elec       q    Type
REMARK                         _______ _______ _______ _____ _____    ______ ____
ROOT
ATOM      1  N   LIG    1        2.888  -0.468   2.421  0.00  0.00    -0.510 N 
ATOM      2  H   LIG    1        2.367  -0.143   3.221  0.00  0.00    +0.430 HD
ATOM      3  H   LIG    1        3.833  -0.119   2.471  0.00  0.00    +0.430 HD
ENDROOT
BRANCH   1   4
ATOM      4  C   LIG    1        2.908  -1.937   2.413  0.00  0.00    +0.160 C 
ATOM      5  C   LIG    1        3.834  -2.424   1.331  0.00  0.00    +0.030 C 
ATOM      6  C   LIG    1        3.350  -3.738   0.689  0.00  0.00    +0.030 C 
ATOM      7  C   LIG    1        2.809  -4.744   1.723  0.00  0.00    +0.000 C 
ATOM      8  C   LIG    1        3.654  -4.803   2.967  0.00  0.00    +0.020 C 
ATOM      9  C   LIG    1        3.053  -3.841   4.013  0.00  0.00    +0.020 C 
ATOM     10  C   LIG    1        3.425  -2.455   3.770  0.00  0.00    +0.040 C 
ENDBRANCH   1   4
BRANCH   1  14
ATOM     11  C   LIG    1        0.225   1.651  -0.158  0.00  0.00    +0.020 C 
ATOM     12  C   LIG    1        1.701   2.052  -0.155  0.00  0.00    +0.040 C 
ATOM     13  C   LIG    1        2.365   1.544   1.127  0.00  0.00    +0.040 C 
ATOM     14  C   LIG    1        2.251   0.020   1.190  0.00  0.00    +0.160 C 
ATOM     15  C   LIG    1        0.774  -0.381   1.187  0.00  0.00    +0.040 C 
ATOM     16  C   LIG    1        0.111   0.127  -0.094  0.00  0.00    +0.030 C 
ENDBRANCH   1  14
TORSDOF 2
ENDMDL
MODEL       35
REMARK  Name = ZINC000035708345
REMARK                            x       y       z     vdW  Elec       q    Type
REMARK                         _______ _______ _______ _____ _____    ______ ____
ROOT
ATOM      1  C   LIG    1        0.759  -0.520   3.643  0.00  0.00    +0.160 C 
ATOM      2  C   LIG    1        2.040   0.311   3.700  0.00  0.00    +0.050 C 
ATOM      3  C   LIG    1        2.865  -0.051   4.926  0.00  0.00    +0.000 C 
ATOM      4  C   LIG    1        2.068  -0.010   6.214  0.00  0.00    +0.030 C 
ATOM      5  C   LIG    1        0.682  -0.626   6.152  0.00  0.00    -0.050 C 
ATOM      6  C   LIG    1       -0.124  -0.111   7.364  0.00  0.00    +0.040 C 
ATOM      7  C   LIG    1        0.753  -2.152   6.263  0.00  0.00    +0.030 C 
ATOM      8  C   LIG    1        3.554  -1.401   4.731  0.00  0.00    +0.030 C 
ATOM      9  C   LIG    1       -0.074  -0.230   4.889  0.00  0.00    +0.050 C 
ENDROOT
BRANCH   1  10
ATOM     10  N   LIG    1       -0.010  -0.139   2.447  0.00  0.00    -0.510 N 
ATOM     11  H   LIG    1       -0.898  -0.619   2.451  0.00  0.00    +0.420 HD
ATOM     12  H   LIG    1       -0.167   0.858   2.452  0.00  0.00    +0.420 HD
BRANCH  10  13
ATOM     13  C   LIG    1        0.742  -0.511   1.242  0.00  0.00    +0.160 C 
ATOM     14  C   LIG    1        0.872  -2.034   1.171  0.00  0.00    +0.090 C 
BRANCH  13  16
ATOM     15  C   LIG    1       -0.019   1.526   0.010  0.00  0.00    +0.030 C 
ATOM     16  C   LIG    1        0.002  -0.004   0.002  0.00  0.00    +0.050 C 
ENDBRANCH  13  16
ENDBRANCH  10  13
ENDBRANCH   1  10
TORSDOF 3
ENDMDL
MODEL       36
REMARK  Name = ZINC000035708343
REMARK                            x       y       z     vdW  Elec       q    Type
REMARK                         _______ _______ _______ _____ _____    ______ ____
ROOT
ATOM      1  C   LIG    1        0.630  -0.519   3.653  0.00  0.00    +0.160 C 
ATOM      2  C   LIG    1        0.825  -2.036   3.661  0.00  0.00    +0.040 C 
ATOM      3  C   LIG    1        1.556  -2.450   4.940  0.00  0.00    -0.010 C 
ATOM      4  C   LIG    1        0.727  -2.036   6.158  0.00  0.00    +0.030 C 
ATOM      5  C   LIG    1        0.532  -0.518   6.150  0.00  0.00    -0.050 C 
ATOM      6  C   LIG    1        1.897   0.171   6.203  0.00  0.00    +0.030 C 
ATOM      7  C   LIG    1       -0.297  -0.104   7.367  0.00  0.00    +0.040 C 
ATOM      8  C   LIG    1        1.750  -3.967   4.948  0.00  0.00    +0.040 C 
ATOM      9  C   LIG    1       -0.199  -0.104   4.870  0.00  0.00    +0.050 C 
ENDROOT
BRANCH   1  10
ATOM     10  N   LIG    1       -0.071  -0.121   2.425  0.00  0.00    -0.510 N 
ATOM     11  H   LIG    1        0.424  -0.483   1.623  0.00  0.00    +0.420 HD
ATOM     12  H   LIG    1       -1.008  -0.494   2.438  0.00  0.00    +0.420 HD
BRANCH  10  13
ATOM     13  C   LIG    1       -0.128   1.344   2.346  0.00  0.00    +0.160 C 
ATOM     14  C   LIG    1        1.288   1.902   2.189  0.00  0.00    +0.090 C 
BRANCH  13  16
ATOM     15  C   LIG    1       -2.421   1.307   1.356  0.00  0.00    +0.030 C 
ATOM     16  C   LIG    1       -0.975   1.758   1.141  0.00  0.00    +0.050 C 
ENDBRANCH  13  16
ENDBRANCH  10  13
ENDBRANCH   1  10
TORSDOF 3
ENDMDL
MODEL       37
REMARK  Name = ZINC000037211447
REMARK                            x       y       z     vdW  Elec       q    Type
REMARK                         _______ _______ _______ _____ _____    ______ ____
ROOT
ATOM      1  N   LIG    1       -2.178  -0.059   1.270  0.00  0.00    -0.510 N 
ATOM      2  H   LIG    1       -2.227   0.948   1.265  0.00  0.00    +0.420 HD
ATOM      3  H   LIG    1       -1.704  -0.369   2.106  0.00  0.00    +0.420 HD
ENDROOT
BRANCH   1   4
ATOM      4  C   LIG    1       -3.537  -0.616   1.244  0.00  0.00    +0.160 C 
ATOM      5  C   LIG    1       -3.470  -2.134   1.427  0.00  0.00    +0.040 C 
ATOM      6  C   LIG    1       -4.886  -2.713   1.399  0.00  0.00    +0.030 C 
ATOM      7  C   LIG    1       -5.711  -2.099   2.532  0.00  0.00    +0.020 C 
ATOM      8  C   LIG    1       -5.777  -0.582   2.349  0.00  0.00    +0.050 C 
ATOM      9  C   LIG    1       -4.362  -0.002   2.376  0.00  0.00    -0.020 C 
ATOM     10  C   LIG    1       -4.429   1.516   2.193  0.00  0.00    +0.040 C 
ENDBRANCH   1   4
BRANCH   1  11
ATOM     11  C   LIG    1       -1.437  -0.520   0.088  0.00  0.00    +0.160 C 
BRANCH  11  12
ATOM     12  C   LIG    1        0.065  -0.477   0.379  0.00  0.00    -0.020 C 
ATOM     13  C   LIG    1        0.503   0.974   0.588  0.00  0.00    +0.040 C 
ATOM     14  C   LIG    1        0.830  -1.076  -0.803  0.00  0.00    +0.070 C 
ENDBRANCH  11  12
BRANCH  11  16
ATOM     15  C   LIG    1       -3.228   0.244  -1.478  0.00  0.00    +0.030 C 
ATOM     16  C   LIG    1       -1.753   0.393  -1.099  0.00  0.00    +0.060 C 
ENDBRANCH  11  16
ENDBRANCH   1  11
TORSDOF 4
ENDMDL
MODEL       38
REMARK  Name = ZINC000002564785
REMARK                            x       y       z     vdW  Elec       q    Type
REMARK                         _______ _______ _______ _____ _____    ______ ____
ROOT
ATOM      1  C   LIG    1       -0.343   0.023  -3.614  0.00  0.00    +0.060 C 
ATOM      2  C   LIG    1       -0.968   1.340  -4.079  0.00  0.00    +0.080 C 
ATOM      3  C   LIG    1       -1.358  -0.755  -2.775  0.00  0.00    +0.080 C 
ENDROOT
BRANCH   1   4
ATOM      4  N   LIG    1        0.849   0.306  -2.803  0.00  0.00    -0.400 N 
ATOM      5  H   LIG    1        1.209  -0.556  -2.422  0.00  0.00    +0.420 HD
BRANCH   4   7
ATOM      6  C   LIG    1        3.159   1.118  -2.833  0.00  0.00    +0.070 C 
ATOM      7  C   LIG    1        1.875   0.936  -3.644  0.00  0.00    +0.230 C 
ENDBRANCH   4   7
BRANCH   4   8
ATOM      8  C   LIG    1        0.490   1.215  -1.706  0.00  0.00    +0.240 C 
ATOM      9  C   LIG    1        1.403   0.953  -0.507  0.00  0.00    +0.070 C 
ENDBRANCH   4   8
ENDBRANCH   1   4
BRANCH   1  10
ATOM     10  C   LIG    1        0.056  -0.811  -4.833  0.00  0.00    +0.060 C 
BRANCH  10  11
ATOM     11  C   LIG    1        0.344  -2.248  -4.396  0.00  0.00    -0.070 C 
ATOM     12  C   LIG    1        1.268  -2.236  -3.177  0.00  0.00    +0.030 C 
ATOM     13  C   LIG    1        1.020  -3.004  -5.542  0.00  0.00    +0.050 C 
ATOM     14  C   LIG    1       -0.971  -2.943  -4.033  0.00  0.00    +0.040 C 
ENDBRANCH  10  11
ENDBRANCH   1  10
TORSDOF 5
ENDMDL
MODEL       39
REMARK  Name = ZINC000037249688
REMARK                            x       y       z     vdW  Elec       q    Type
REMARK                         _______ _______ _______ _____ _____    ______ ____
ROOT
ATOM      1  N   LIG    1       -1.413  -2.002   0.005  0.00  0.00    -0.510 N 
ATOM      2  H   LIG    1       -0.999  -2.338   0.861  0.00  0.00    +0.420 HD
ATOM      3  H   LIG    1       -0.871  -2.327  -0.781  0.00  0.00    +0.420 HD
ENDROOT
BRANCH   1   4
ATOM      4  C   LIG    1       -1.433  -0.534   0.013  0.00  0.00    +0.160 C 
ATOM      5  C   LIG    1       -2.149  -0.040   1.272  0.00  0.00    +0.080 C 
BRANCH   4   7
ATOM      6  C   LIG    1       -0.019   1.526   0.010  0.00  0.00    +0.070 C 
ATOM      7  C   LIG    1        0.002  -0.004   0.002  0.00  0.00    -0.020 C 
ATOM      8  C   LIG    1        0.742  -0.511   1.242  0.00  0.00    +0.040 C 
ENDBRANCH   4   7
ENDBRANCH   1   4
BRANCH   1   9
ATOM      9  C   LIG    1       -2.787  -2.510  -0.105  0.00  0.00    +0.160 C 
ATOM     10  C   LIG    1       -3.373  -2.106  -1.460  0.00  0.00    +0.090 C 
BRANCH   9  11
ATOM     11  C   LIG    1       -2.778  -4.036   0.011  0.00  0.00    -0.010 C 
ATOM     12  C   LIG    1       -2.192  -4.440   1.366  0.00  0.00    +0.000 C 
ATOM     13  C   LIG    1       -2.183  -5.966   1.482  0.00  0.00    +0.020 C 
ATOM     14  C   LIG    1       -3.614  -6.494   1.367  0.00  0.00    +0.010 C 
ATOM     15  C   LIG    1       -4.200  -6.090   0.013  0.00  0.00    +0.020 C 
ATOM     16  C   LIG    1       -4.209  -4.565  -0.104  0.00  0.00    +0.040 C 
ENDBRANCH   9  11
ENDBRANCH   1   9
TORSDOF 4
ENDMDL
MODEL       40
REMARK  Name = ZINC000037249686
REMARK                            x       y       z     vdW  Elec       q    Type
REMARK                         _______ _______ _______ _____ _____    ______ ____
ROOT
ATOM      1  N   LIG    1       -1.056  -1.751  -0.371  0.00  0.00    -0.510 N 
ATOM      2  H   LIG    1       -0.510  -2.379   0.200  0.00  0.00    +0.420 HD
ATOM      3  H   LIG    1       -0.513  -1.466  -1.172  0.00  0.00    +0.420 HD
ENDROOT
BRANCH   1   4
ATOM      4  C   LIG    1       -1.423  -0.567   0.418  0.00  0.00    +0.170 C 
ATOM      5  C   LIG    1       -2.103   0.459  -0.490  0.00  0.00    +0.090 C 
BRANCH   4   7
ATOM      6  C   LIG    1       -0.546   1.281   1.851  0.00  0.00    +0.070 C 
ATOM      7  C   LIG    1       -0.164   0.048   1.030  0.00  0.00    -0.020 C 
ATOM      8  C   LIG    1        0.516  -0.978   1.938  0.00  0.00    +0.040 C 
ENDBRANCH   4   7
ENDBRANCH   1   4
BRANCH   1   9
ATOM      9  C   LIG    1       -2.275  -2.435  -0.824  0.00  0.00    +0.170 C 
ATOM     10  C   LIG    1       -2.762  -1.799  -2.127  0.00  0.00    +0.090 C 
BRANCH   9  11
ATOM     11  C   LIG    1       -1.970  -3.916  -1.061  0.00  0.00    -0.010 C 
ATOM     12  C   LIG    1       -1.483  -4.552   0.242  0.00  0.00    +0.000 C 
ATOM     13  C   LIG    1       -1.179  -6.032   0.005  0.00  0.00    +0.020 C 
ATOM     14  C   LIG    1       -2.448  -6.744  -0.467  0.00  0.00    +0.010 C 
ATOM     15  C   LIG    1       -2.935  -6.108  -1.770  0.00  0.00    +0.020 C 
ATOM     16  C   LIG    1       -3.240  -4.628  -1.533  0.00  0.00    +0.040 C 
ENDBRANCH   9  11
ENDBRANCH   1   9
TORSDOF 4
ENDMDL
MODEL       41
REMARK  Name = ZINC000004797499
REMARK                            x       y       z     vdW  Elec       q    Type
REMARK                         _______ _______ _______ _____ _____    ______ ____
ROOT
ATOM      1  C   LIG    1       -0.016   1.351   0.009  0.00  0.00    -0.040 A 
ATOM      2  C   LIG    1       -1.234   2.035   0.031  0.00  0.00    +0.160 A 
ATOM      3  C   LIG    1       -1.253   3.411   0.038  0.00  0.00    +0.070 A 
ATOM      4  C   LIG    1       -0.054   4.130   0.025  0.00  0.00    +0.080 A 
ATOM      5  C   LIG    1        1.160   3.443   0.005  0.00  0.00    -0.090 A 
ATOM      6  C   LIG    1        2.264   4.473  -0.005  0.00  0.00    +0.190 C 
ATOM      7  C   LIG    1        1.580   5.818   0.011  0.00  0.00    -0.060 A 
ATOM      8  C   LIG    1        2.071   7.106   0.012  0.00  0.00    +0.030 A 
ATOM      9  C   LIG    1        1.198   8.180   0.030  0.00  0.00    +0.070 A 
ATOM     10  C   LIG    1       -0.168   7.964   0.049  0.00  0.00    +0.020 A 
ATOM     11  C   LIG    1       -0.669   6.679   0.048  0.00  0.00    +0.070 A 
ATOM     12  C   LIG    1        0.206   5.590   0.029  0.00  0.00    -0.120 A 
ATOM     13  C   LIG    1        1.183   2.069   0.002  0.00  0.00    +0.160 A 
ENDROOT
BRANCH   1  15
ATOM     14  N   LIG    1        0.016  -1.038  -0.004  0.00  0.00    +0.290 NA
ATOM     15  N   LIG    1        0.002  -0.004   0.002  0.00  0.00    +0.160 NA
ENDBRANCH   1  15
TORSDOF 1
ENDMDL
MODEL       42
REMARK  Name = ZINC000037414400
REMARK                            x       y       z     vdW  Elec       q    Type
REMARK                         _______ _______ _______ _____ _____    ______ ____
ROOT
ATOM      1  N   LIG    1       -2.140   0.062   1.188  0.00  0.00    -0.510 N 
ATOM      2  H   LIG    1       -1.681  -0.207   2.045  0.00  0.00    +0.420 HD
ATOM      3  H   LIG    1       -3.060  -0.351   1.155  0.00  0.00    +0.420 HD
ENDROOT
BRANCH   1   4
ATOM      4  C   LIG    1       -2.258   1.526   1.134  0.00  0.00    +0.160 C 
ATOM      5  C   LIG    1       -3.078   1.926  -0.094  0.00  0.00    +0.090 C 
BRANCH   4   6
ATOM      6  C   LIG    1       -2.955   2.028   2.399  0.00  0.00    -0.020 C 
ATOM      7  C   LIG    1       -2.135   1.628   3.627  0.00  0.00    +0.000 C 
ATOM      8  C   LIG    1       -2.832   2.130   4.893  0.00  0.00    +0.020 C 
ATOM      9  C   LIG    1       -2.955   3.654   4.836  0.00  0.00    +0.010 C 
ATOM     10  C   LIG    1       -3.776   4.055   3.608  0.00  0.00    +0.020 C 
ATOM     11  C   LIG    1       -3.078   3.552   2.343  0.00  0.00    +0.040 C 
ENDBRANCH   4   6
ENDBRANCH   1   4
BRANCH   1  12
ATOM     12  C   LIG    1       -1.351  -0.408   0.041  0.00  0.00    +0.160 C 
BRANCH  12  14
ATOM     13  C   LIG    1        0.881  -0.298  -1.076  0.00  0.00    +0.060 C 
ATOM     14  C   LIG    1        0.087   0.099   0.170  0.00  0.00    +0.030 C 
ENDBRANCH  12  14
BRANCH  12  15
ATOM     15  C   LIG    1       -1.351  -1.938   0.015  0.00  0.00    +0.050 C 
ATOM     16  C   LIG    1       -2.773  -2.443  -0.238  0.00  0.00    +0.030 C 
ENDBRANCH  12  15
ENDBRANCH   1  12
TORSDOF 5
ENDMDL
MODEL       43
REMARK  Name = ZINC000037414402
REMARK                            x       y       z     vdW  Elec       q    Type
REMARK                         _______ _______ _______ _____ _____    ______ ____
ROOT
ATOM      1  N   LIG    1       -1.275  -1.234   1.591  0.00  0.00    -0.510 N 
ATOM      2  H   LIG    1       -0.398  -1.535   1.990  0.00  0.00    +0.420 HD
ATOM      3  H   LIG    1       -1.921  -2.008   1.576  0.00  0.00    +0.420 HD
ENDROOT
BRANCH   1   4
ATOM      4  C   LIG    1       -1.834  -0.145   2.404  0.00  0.00    +0.170 C 
ATOM      5  C   LIG    1       -0.836   1.013   2.461  0.00  0.00    +0.080 C 
BRANCH   4   6
ATOM      6  C   LIG    1       -2.106  -0.654   3.821  0.00  0.00    -0.020 C 
ATOM      7  C   LIG    1       -0.782  -1.022   4.493  0.00  0.00    +0.000 C 
ATOM      8  C   LIG    1       -1.055  -1.531   5.910  0.00  0.00    +0.020 C 
ATOM      9  C   LIG    1       -1.752  -0.436   6.721  0.00  0.00    +0.010 C 
ATOM     10  C   LIG    1       -3.075  -0.068   6.048  0.00  0.00    +0.020 C 
ATOM     11  C   LIG    1       -2.803   0.441   4.631  0.00  0.00    +0.040 C 
ENDBRANCH   4   6
ENDBRANCH   1   4
BRANCH   1  12
ATOM     12  C   LIG    1       -1.050  -0.757   0.220  0.00  0.00    +0.160 C 
BRANCH  12  14
ATOM     13  C   LIG    1        1.108  -1.992  -0.020  0.00  0.00    +0.030 C 
ATOM     14  C   LIG    1       -0.307  -1.829  -0.578  0.00  0.00    +0.050 C 
ENDBRANCH  12  14
BRANCH  12  15
ATOM     15  C   LIG    1       -2.397  -0.467  -0.446  0.00  0.00    +0.050 C 
ATOM     16  C   LIG    1       -2.754   1.008  -0.253  0.00  0.00    +0.030 C 
ENDBRANCH  12  15
ENDBRANCH   1  12
TORSDOF 5
ENDMDL
MODEL       44
REMARK  Name = ZINC000102315016
REMARK                            x       y       z     vdW  Elec       q    Type
REMARK                         _______ _______ _______ _____ _____    ______ ____
ROOT
ATOM      1  C   LIG    1       -3.210  -0.440  -1.131  0.00  0.00    -0.010 C 
ATOM      2  C   LIG    1       -4.006  -1.469  -0.981  0.00  0.00    +0.040 C 
ATOM      3  C   LIG    1       -3.000   0.157  -2.499  0.00  0.00    +0.100 C 
ENDROOT
BRANCH   2   4
ATOM      4  N   LIG    1       -4.556  -2.097  -2.102  0.00  0.00    -0.330 NA
ATOM      5  C   LIG    1       -6.011  -1.899  -2.108  0.00  0.00    +0.250 C 
ATOM      6  C   LIG    1       -6.609  -2.514  -3.375  0.00  0.00    +0.050 C 
ATOM      7  C   LIG    1       -6.296  -4.013  -3.404  0.00  0.00    +0.030 C 
ATOM      8  C   LIG    1       -4.779  -4.210  -3.323  0.00  0.00    +0.050 C 
ATOM      9  C   LIG    1       -4.251  -3.532  -2.057  0.00  0.00    +0.260 C 
ATOM     10  H   LIG    1       -4.160  -1.696  -2.939  0.00  0.00    +0.420 HD
ENDBRANCH   2   4
BRANCH   1  11
ATOM     11  C   LIG    1       -2.504   0.148   0.064  0.00  0.00    +0.120 C 
BRANCH  11  14
ATOM     12  C   LIG    1       -0.248   1.832   0.159  0.00  0.00    +0.080 C 
ATOM     13  C   LIG    1       -0.075   0.336   0.219  0.00  0.00    -0.090 C 
ATOM     14  C   LIG    1       -1.124  -0.447   0.174  0.00  0.00    -0.090 C 
ATOM     15  C   LIG    1        1.305  -0.259   0.330  0.00  0.00    +0.090 C 
ENDBRANCH  11  14
ENDBRANCH   1  11
TORSDOF 3
ENDMDL
MODEL       45
REMARK  Name = ZINC000019808026
REMARK                            x       y       z     vdW  Elec       q    Type
REMARK                         _______ _______ _______ _____ _____    ______ ____
ROOT
ATOM      1  C   LIG    1        1.520  -2.432  -2.389  0.00  0.00    -0.130 A 
ATOM      2  C   LIG    1        2.037  -3.738  -2.399  0.00  0.00    -0.030 A 
ATOM      3  C   LIG    1        1.815  -4.619  -1.327  0.00  0.00    +0.000 A 
ATOM      4  C   LIG    1        2.331  -5.878  -1.371  0.00  0.00    +0.040 A 
ATOM      5  C   LIG    1        3.079  -6.308  -2.466  0.00  0.00    +0.020 A 
ATOM      6  C   LIG    1        3.315  -5.483  -3.522  0.00  0.00    +0.050 A 
ATOM      7  C   LIG    1        2.797  -4.176  -3.512  0.00  0.00    -0.050 A 
ATOM      8  C   LIG    1        3.019  -3.295  -4.584  0.00  0.00    +0.070 A 
ATOM      9  C   LIG    1        2.502  -2.037  -4.540  0.00  0.00    +0.020 A 
ATOM     10  C   LIG    1        1.751  -1.608  -3.448  0.00  0.00    +0.010 A 
ENDROOT
BRANCH   1  11
ATOM     11  C   LIG    1        0.710  -1.947  -1.215  0.00  0.00    +0.230 C 
ATOM     12  C   LIG    1       -0.722  -2.475  -1.330  0.00  0.00    +0.100 C 
BRANCH  11  13
ATOM     13  N   LIG    1        0.690  -0.478  -1.207  0.00  0.00    -0.510 N 
ATOM     14  H   LIG    1        1.636  -0.129  -1.214  0.00  0.00    +0.430 HD
ATOM     15  H   LIG    1        0.202  -0.144  -2.024  0.00  0.00    +0.430 HD
BRANCH  13  17
ATOM     16  C   LIG    1       -0.019   1.526   0.010  0.00  0.00    +0.080 C 
ATOM     17  C   LIG    1        0.002  -0.004   0.002  0.00  0.00    +0.250 C 
ENDBRANCH  13  17
ENDBRANCH  11  13
ENDBRANCH   1  11
TORSDOF 3
ENDMDL
MODEL       46
REMARK  Name = ZINC000002559504
REMARK                            x       y       z     vdW  Elec       q    Type
REMARK                         _______ _______ _______ _____ _____    ______ ____
ROOT
ATOM      1  C   LIG    1       -2.061   0.796   0.202  0.00  0.00    -0.260 C 
ATOM      2  P   LIG    1       -0.598  -0.161  -0.317  0.00  0.00    +1.860 P 
ATOM      3  H   LIG    1       -0.937  -1.538  -0.397  0.00  0.00    -0.110 HD
ENDROOT
BRANCH   2   4
ATOM      4  C   LIG    1        0.740   0.065   0.900  0.00  0.00    -0.510 C 
ATOM      5  C   LIG    1        1.366   1.449   0.718  0.00  0.00    +0.090 C 
ATOM      6  C   LIG    1        1.808  -1.010   0.691  0.00  0.00    +0.100 C 
ATOM      7  C   LIG    1        0.168  -0.053   2.315  0.00  0.00    +0.090 C 
ENDBRANCH   2   4
BRANCH   2   8
ATOM      8  C   LIG    1       -0.038   0.423  -1.951  0.00  0.00    -0.510 C 
ATOM      9  C   LIG    1       -1.028  -0.035  -3.023  0.00  0.00    +0.090 C 
ATOM     10  C   LIG    1        1.345  -0.156  -2.253  0.00  0.00    +0.090 C 
ATOM     11  C   LIG    1        0.038   1.951  -1.947  0.00  0.00    +0.090 C 
ENDBRANCH   2   8
TORSDOF 2
ENDMDL
MODEL       47
REMARK  Name = ZINC000019808027
REMARK                            x       y       z     vdW  Elec       q    Type
REMARK                         _______ _______ _______ _____ _____    ______ ____
ROOT
ATOM      1  C   LIG    1        1.304  -2.434  -2.511  0.00  0.00    -0.130 A 
ATOM      2  C   LIG    1        0.974  -3.707  -3.005  0.00  0.00    -0.030 A 
ATOM      3  C   LIG    1        0.089  -4.551  -2.313  0.00  0.00    +0.000 A 
ATOM      4  C   LIG    1       -0.209  -5.777  -2.823  0.00  0.00    +0.040 A 
ATOM      5  C   LIG    1        0.352  -6.211  -4.023  0.00  0.00    +0.020 A 
ATOM      6  C   LIG    1        1.213  -5.421  -4.720  0.00  0.00    +0.050 A 
ATOM      7  C   LIG    1        1.543  -4.148  -4.226  0.00  0.00    -0.050 A 
ATOM      8  C   LIG    1        2.428  -3.303  -4.918  0.00  0.00    +0.070 A 
ATOM      9  C   LIG    1        2.725  -2.076  -4.409  0.00  0.00    +0.020 A 
ATOM     10  C   LIG    1        2.161  -1.641  -3.211  0.00  0.00    +0.010 A 
ENDROOT
BRANCH   1  11
ATOM     11  C   LIG    1        0.710  -1.947  -1.215  0.00  0.00    +0.230 C 
ATOM     12  C   LIG    1        1.555  -2.452  -0.044  0.00  0.00    +0.100 C 
BRANCH  11  13
ATOM     13  N   LIG    1        0.690  -0.478  -1.207  0.00  0.00    -0.510 N 
ATOM     14  H   LIG    1        1.636  -0.129  -1.214  0.00  0.00    +0.430 HD
ATOM     15  H   LIG    1        0.202  -0.144  -2.024  0.00  0.00    +0.430 HD
BRANCH  13  17
ATOM     16  C   LIG    1       -0.019   1.526   0.010  0.00  0.00    +0.080 C 
ATOM     17  C   LIG    1        0.002  -0.004   0.002  0.00  0.00    +0.250 C 
ENDBRANCH  13  17
ENDBRANCH  11  13
ENDBRANCH   1  11
TORSDOF 3
ENDMDL
MODEL       48
REMARK  Name = ZINC000002040425
REMARK                            x       y       z     vdW  Elec       q    Type
REMARK                         _______ _______ _______ _____ _____    ______ ____
ROOT
ATOM      1  C   LIG    1       -2.833  -4.111  -0.244  0.00  0.00    +0.170 C 
ATOM      2  C   LIG    1       -4.268  -4.630  -0.359  0.00  0.00    +0.090 C 
ENDROOT
BRANCH   1   3
ATOM      3  N   LIG    1       -2.193  -4.700   0.940  0.00  0.00    -0.510 N 
ATOM      4  H   LIG    1       -2.756  -4.510   1.755  0.00  0.00    +0.430 HD
ATOM      5  H   LIG    1       -1.277  -4.296   1.062  0.00  0.00    +0.430 HD
BRANCH   3   6
ATOM      6  C   LIG    1       -2.068  -6.152   0.758  0.00  0.00    +0.240 C 
BRANCH   6   7
ATOM      7  C   LIG    1       -1.401  -6.765   1.991  0.00  0.00    +0.030 C 
BRANCH   7   8
ATOM      8  C   LIG    1       -1.271  -8.277   1.802  0.00  0.00    -0.010 C 
ATOM      9  C   LIG    1       -2.665  -8.906   1.741  0.00  0.00    +0.020 C 
ATOM     10  C   LIG    1       -0.494  -8.873   2.977  0.00  0.00    +0.040 C 
ENDBRANCH   7   8
ENDBRANCH   6   7
ENDBRANCH   3   6
ENDBRANCH   1   3
BRANCH   1  11
ATOM     11  C   LIG    1       -2.851  -2.587  -0.110  0.00  0.00    +0.050 C 
BRANCH  11  12
ATOM     12  C   LIG    1       -1.416  -2.058  -0.121  0.00  0.00    -0.000 C 
BRANCH  12  13
ATOM     13  C   LIG    1       -1.433  -0.534   0.013  0.00  0.00    +0.020 C 
BRANCH  13  15
ATOM     14  C   LIG    1       -0.019   1.526   0.010  0.00  0.00    +0.030 C 
ATOM     15  C   LIG    1        0.002  -0.004   0.002  0.00  0.00    -0.030 C 
ATOM     16  C   LIG    1        0.742  -0.511   1.242  0.00  0.00    +0.020 C 
ENDBRANCH  13  15
ENDBRANCH  12  13
ENDBRANCH  11  12
ENDBRANCH   1  11
TORSDOF 8
ENDMDL
MODEL       49
REMARK  Name = ZINC000002040424
REMARK                            x       y       z     vdW  Elec       q    Type
REMARK                         _______ _______ _______ _____ _____    ______ ____
ROOT
ATOM      1  C   LIG    1       -2.833  -4.111  -0.244  0.00  0.00    +0.170 C 
ATOM      2  C   LIG    1       -4.258  -4.652  -0.109  0.00  0.00    +0.090 C 
ENDROOT
BRANCH   1   3
ATOM      3  N   LIG    1       -2.293  -4.481  -1.559  0.00  0.00    -0.510 N 
ATOM      4  H   LIG    1       -1.386  -4.056  -1.682  0.00  0.00    +0.430 HD
ATOM      5  H   LIG    1       -2.917  -4.157  -2.283  0.00  0.00    +0.430 HD
BRANCH   3   6
ATOM      6  C   LIG    1       -2.164  -5.942  -1.643  0.00  0.00    +0.240 C 
BRANCH   6   7
ATOM      7  C   LIG    1       -1.601  -6.327  -3.012  0.00  0.00    +0.030 C 
BRANCH   7   8
ATOM      8  C   LIG    1       -1.466  -7.848  -3.099  0.00  0.00    -0.010 C 
ATOM      9  C   LIG    1       -0.426  -8.327  -2.084  0.00  0.00    +0.020 C 
ATOM     10  C   LIG    1       -1.022  -8.242  -4.509  0.00  0.00    +0.040 C 
ENDBRANCH   7   8
ENDBRANCH   6   7
ENDBRANCH   3   6
ENDBRANCH   1   3
BRANCH   1  11
ATOM     11  C   LIG    1       -2.851  -2.587  -0.110  0.00  0.00    +0.050 C 
BRANCH  11  12
ATOM     12  C   LIG    1       -1.416  -2.058  -0.121  0.00  0.00    -0.000 C 
BRANCH  12  13
ATOM     13  C   LIG    1       -1.433  -0.534   0.013  0.00  0.00    +0.020 C 
BRANCH  13  15
ATOM     14  C   LIG    1       -0.019   1.526   0.010  0.00  0.00    +0.030 C 
ATOM     15  C   LIG    1        0.002  -0.004   0.002  0.00  0.00    -0.030 C 
ATOM     16  C   LIG    1        0.742  -0.511   1.242  0.00  0.00    +0.020 C 
ENDBRANCH  13  15
ENDBRANCH  12  13
ENDBRANCH  11  12
ENDBRANCH   1  11
TORSDOF 8
ENDMDL
MODEL       50
REMARK  Name = ZINC000002549356
REMARK                            x       y       z     vdW  Elec       q    Type
REMARK                         _______ _______ _______ _____ _____    ______ ____
ROOT
ATOM      1  C   LIG    1        0.632  -2.000  -1.327  0.00  0.00    -0.040 A 
ATOM      2  C   LIG    1        1.163  -2.772  -0.311  0.00  0.00    +0.040 A 
ATOM      3  C   LIG    1        1.084  -4.150  -0.376  0.00  0.00    +0.050 A 
ATOM      4  C   LIG    1        0.472  -4.757  -1.457  0.00  0.00    -0.160 A 
ATOM      5  C   LIG    1       -0.060  -3.986  -2.473  0.00  0.00    +0.000 A 
ATOM      6  C   LIG    1        0.016  -2.607  -2.406  0.00  0.00    +0.020 A 
ENDROOT
BRANCH   1   7
ATOM      7  C   LIG    1        0.718  -0.497  -1.257  0.00  0.00    +0.020 C 
ATOM      8  C   LIG    1        2.187  -0.073  -1.207  0.00  0.00    +0.040 C 
BRANCH   7  10
ATOM      9  C   LIG    1       -0.019   1.526   0.010  0.00  0.00    +0.020 C 
ATOM     10  C   LIG    1        0.002  -0.004   0.002  0.00  0.00    +0.010 C 
ENDBRANCH   7  10
ENDBRANCH   1   7
BRANCH   4  11
ATOM     11  C   LIG    1        0.386  -6.260  -1.528  0.00  0.00    +0.240 C 
BRANCH  11  12
ATOM     12  N   LIG    1        0.632  -6.700  -2.908  0.00  0.00    -0.640 N 
ATOM     13  H   LIG    1        0.574  -7.706  -2.955  0.00  0.00    +0.440 HD
ATOM     14  H   LIG    1        1.551  -6.402  -3.197  0.00  0.00    +0.440 HD
ATOM     15  H   LIG    1       -0.061  -6.294  -3.519  0.00  0.00    +0.430 HD
ENDBRANCH  11  12
BRANCH  11  16
ATOM     16  C   LIG    1       -1.008  -6.713  -1.089  0.00  0.00    +0.060 C 
ATOM     17  C   LIG    1       -1.057  -8.241  -1.041  0.00  0.00    +0.020 C 
ENDBRANCH  11  16
ENDBRANCH   4  11
TORSDOF 5
ENDMDL
MODEL       51
REMARK  Name = ZINC000054554363
REMARK                            x       y       z     vdW  Elec       q    Type
REMARK                         _______ _______ _______ _____ _____    ______ ____
ROOT
ATOM      1  C   LIG    1        2.788  -0.458  -2.470  0.00  0.00    +0.160 C 
ATOM      2  C   LIG    1        2.173   0.343  -3.619  0.00  0.00    +0.060 C 
ATOM      3  C   LIG    1        2.368   1.838  -3.360  0.00  0.00    +0.030 C 
ATOM      4  C   LIG    1        3.863   2.149  -3.264  0.00  0.00    +0.000 C 
ATOM      5  C   LIG    1        4.477   1.348  -2.114  0.00  0.00    +0.030 C 
ATOM      6  C   LIG    1        4.283  -0.148  -2.373  0.00  0.00    +0.060 C 
ENDROOT
BRANCH   1   7
ATOM      7  N   LIG    1        2.129  -0.090  -1.209  0.00  0.00    -0.510 N 
ATOM      8  H   LIG    1        2.588  -0.556  -0.441  0.00  0.00    +0.420 HD
ATOM      9  H   LIG    1        2.186   0.909  -1.079  0.00  0.00    +0.420 HD
BRANCH   7  10
ATOM     10  C   LIG    1        0.718  -0.497  -1.257  0.00  0.00    +0.160 C 
ATOM     11  C   LIG    1        0.630  -2.023  -1.329  0.00  0.00    +0.090 C 
BRANCH  10  13
ATOM     12  C   LIG    1       -0.019   1.526   0.010  0.00  0.00    +0.020 C 
ATOM     13  C   LIG    1        0.002  -0.004   0.002  0.00  0.00    +0.050 C 
ENDBRANCH  10  13
ENDBRANCH   7  10
ENDBRANCH   1   7
BRANCH   4  14
ATOM     14  C   LIG    1        4.058   3.644  -3.005  0.00  0.00    -0.020 C 
ATOM     15  C   LIG    1        3.443   4.445  -4.154  0.00  0.00    +0.020 C 
ATOM     16  C   LIG    1        5.553   3.954  -2.908  0.00  0.00    +0.020 C 
ENDBRANCH   4  14
TORSDOF 4
ENDMDL
MODEL       52
REMARK  Name = ZINC000054554380
REMARK                            x       y       z     vdW  Elec       q    Type
REMARK                         _______ _______ _______ _____ _____    ______ ____
ROOT
ATOM      1  C   LIG    1       -2.771  -4.041   0.007  0.00  0.00    +0.170 C 
ATOM      2  C   LIG    1       -2.142  -4.550   1.306  0.00  0.00    +0.060 C 
ATOM      3  C   LIG    1       -2.965  -4.057   2.498  0.00  0.00    +0.030 C 
ATOM      4  C   LIG    1       -4.396  -4.586   2.383  0.00  0.00    +0.000 C 
ATOM      5  C   LIG    1       -5.025  -4.077   1.084  0.00  0.00    +0.030 C 
ATOM      6  C   LIG    1       -4.202  -4.570  -0.108  0.00  0.00    +0.060 C 
ENDROOT
BRANCH   1   7
ATOM      7  N   LIG    1       -2.791  -2.572   0.015  0.00  0.00    -0.510 N 
ATOM      8  H   LIG    1       -3.279  -2.238  -0.802  0.00  0.00    +0.430 HD
ATOM      9  H   LIG    1       -3.263  -2.247   0.845  0.00  0.00    +0.420 HD
BRANCH   7  10
ATOM     10  C   LIG    1       -1.413  -2.063   0.004  0.00  0.00    +0.250 C 
BRANCH  10  11
ATOM     11  C   LIG    1       -1.433  -0.534   0.013  0.00  0.00    +0.030 C 
BRANCH  11  13
ATOM     12  C   LIG    1       -0.019   1.526   0.010  0.00  0.00    +0.030 C 
ATOM     13  C   LIG    1        0.002  -0.004   0.002  0.00  0.00    +0.020 C 
ENDBRANCH  11  13
ENDBRANCH  10  11
ENDBRANCH   7  10
ENDBRANCH   1   7
BRANCH   4  14
ATOM     14  C   LIG    1       -5.219  -4.094   3.575  0.00  0.00    -0.020 C 
ATOM     15  C   LIG    1       -4.590  -4.602   4.874  0.00  0.00    +0.020 C 
ATOM     16  C   LIG    1       -6.650  -4.622   3.460  0.00  0.00    +0.020 C 
ENDBRANCH   4  14
TORSDOF 5
ENDMDL
MODEL       53
REMARK  Name = ZINC000007989131
REMARK                            x       y       z     vdW  Elec       q    Type
REMARK                         _______ _______ _______ _____ _____    ______ ____
ROOT
ATOM      1  C   LIG    1       -4.243  -0.305  -2.583  0.00  0.00    +0.170 C 
ATOM      2  C   LIG    1       -5.576  -1.014  -2.334  0.00  0.00    +0.080 C 
ENDROOT
BRANCH   1   3
ATOM      3  N   LIG    1       -4.262   1.014  -1.938  0.00  0.00    -0.510 N 
ATOM      4  H   LIG    1       -3.344   1.429  -1.994  0.00  0.00    +0.420 HD
ATOM      5  H   LIG    1       -4.527   0.912  -0.970  0.00  0.00    +0.420 HD
BRANCH   3   6
ATOM      6  C   LIG    1       -5.232   1.879  -2.623  0.00  0.00    +0.160 C 
ATOM      7  C   LIG    1       -6.678   1.492  -2.226  0.00  0.00    +0.040 C 
ATOM      8  C   LIG    1       -7.470   2.794  -2.503  0.00  0.00    +0.040 C 
ATOM      9  C   LIG    1       -6.509   3.920  -2.067  0.00  0.00    +0.030 C 
ATOM     10  C   LIG    1       -5.087   3.339  -2.143  0.00  0.00    +0.040 C 
ENDBRANCH   3   6
ENDBRANCH   1   3
BRANCH   1  11
ATOM     11  C   LIG    1       -3.103  -1.142  -1.998  0.00  0.00    +0.050 C 
BRANCH  11  12
ATOM     12  C   LIG    1       -1.762  -0.498  -2.355  0.00  0.00    -0.000 C 
BRANCH  12  13
ATOM     13  C   LIG    1       -0.623  -1.335  -1.770  0.00  0.00    +0.020 C 
BRANCH  13  15
ATOM     14  C   LIG    1        0.827   0.674  -1.444  0.00  0.00    +0.020 C 
ATOM     15  C   LIG    1        0.718  -0.691  -2.127  0.00  0.00    -0.030 C 
ATOM     16  C   LIG    1        1.860  -1.592  -1.650  0.00  0.00    +0.030 C 
ENDBRANCH  13  15
ENDBRANCH  12  13
ENDBRANCH  11  12
ENDBRANCH   1  11
TORSDOF 6
ENDMDL
MODEL       54
REMARK  Name = ZINC000007989132
REMARK                            x       y       z     vdW  Elec       q    Type
REMARK                         _______ _______ _______ _____ _____    ______ ____
ROOT
ATOM      1  C   LIG    1       -4.272  -0.258  -2.573  0.00  0.00    +0.160 C 
ATOM      2  C   LIG    1       -5.742  -0.679  -2.510  0.00  0.00    +0.090 C 
ENDROOT
BRANCH   1   3
ATOM      3  N   LIG    1       -3.621  -0.925  -3.709  0.00  0.00    -0.500 N 
ATOM      4  H   LIG    1       -3.751  -1.922  -3.633  0.00  0.00    +0.430 HD
ATOM      5  H   LIG    1       -2.635  -0.713  -3.703  0.00  0.00    +0.420 HD
BRANCH   3   6
ATOM      6  C   LIG    1       -4.216  -0.447  -4.964  0.00  0.00    +0.160 C 
ATOM      7  C   LIG    1       -3.812   1.024  -5.231  0.00  0.00    +0.040 C 
ATOM      8  C   LIG    1       -3.974   1.151  -6.766  0.00  0.00    +0.050 C 
ATOM      9  C   LIG    1       -3.483  -0.206  -7.311  0.00  0.00    +0.030 C 
ATOM     10  C   LIG    1       -3.637  -1.222  -6.166  0.00  0.00    +0.040 C 
ENDBRANCH   3   6
ENDBRANCH   1   3
BRANCH   1  11
ATOM     11  C   LIG    1       -3.571  -0.661  -1.275  0.00  0.00    +0.050 C 
BRANCH  11  12
ATOM     12  C   LIG    1       -2.135  -0.131  -1.286  0.00  0.00    -0.000 C 
BRANCH  12  13
ATOM     13  C   LIG    1       -1.433  -0.534   0.013  0.00  0.00    +0.020 C 
BRANCH  13  15
ATOM     14  C   LIG    1       -0.019   1.526   0.010  0.00  0.00    +0.020 C 
ATOM     15  C   LIG    1        0.002  -0.004   0.002  0.00  0.00    -0.030 C 
ATOM     16  C   LIG    1        0.742  -0.511   1.242  0.00  0.00    +0.030 C 
ENDBRANCH  13  15
ENDBRANCH  12  13
ENDBRANCH  11  12
ENDBRANCH   1  11
TORSDOF 6
ENDMDL
MODEL       55
REMARK  Name = ZINC000071769628
REMARK                            x       y       z     vdW  Elec       q    Type
REMARK                         _______ _______ _______ _____ _____    ______ ____
ROOT
ATOM      1  P   LIG    1        0.855  -0.592  -1.498  0.00  0.00    +1.810 P 
ATOM      2  C   LIG    1       -0.022   0.017  -2.979  0.00  0.00    -0.300 C 
ATOM      3  C   LIG    1        0.725  -0.458  -4.229  0.00  0.00    +0.090 C 
ATOM      4  C   LIG    1        1.826   0.510  -4.560  0.00  0.00    -0.030 C 
ATOM      5  C   LIG    1        2.955   0.523  -3.923  0.00  0.00    -0.030 C 
ATOM      6  C   LIG    1        3.259  -0.429  -2.799  0.00  0.00    +0.090 C 
ATOM      7  C   LIG    1        2.567   0.044  -1.517  0.00  0.00    -0.300 C 
ATOM      8  H   LIG    1        0.876  -2.012  -1.508  0.00  0.00    -0.100 HD
ENDROOT
BRANCH   1  10
ATOM      9  C   LIG    1       -0.019   1.526   0.010  0.00  0.00    +0.100 C 
ATOM     10  C   LIG    1        0.002  -0.004   0.002  0.00  0.00    -0.500 C 
ATOM     11  C   LIG    1       -1.433  -0.534   0.013  0.00  0.00    +0.090 C 
ATOM     12  C   LIG    1        0.742  -0.511   1.242  0.00  0.00    +0.090 C 
ENDBRANCH   1  10
TORSDOF 1
ENDMDL
MODEL       56
REMARK  Name = ZINC000019882016
REMARK                            x       y       z     vdW  Elec       q    Type
REMARK                         _______ _______ _______ _____ _____    ______ ____
ROOT
ATOM      1  C   LIG    1       -3.488   0.043   1.645  0.00  0.00    +0.220 C 
ENDROOT
BRANCH   1   2
ATOM      2  C   LIG    1       -3.863   0.558   3.011  0.00  0.00    -0.130 A 
ATOM      3  C   LIG    1       -3.048   1.472   3.653  0.00  0.00    +0.000 A 
ATOM      4  C   LIG    1       -3.392   1.945   4.906  0.00  0.00    +0.040 A 
ATOM      5  C   LIG    1       -4.552   1.504   5.516  0.00  0.00    +0.050 A 
ATOM      6  C   LIG    1       -5.367   0.592   4.874  0.00  0.00    +0.040 A 
ATOM      7  C   LIG    1       -5.025   0.122   3.619  0.00  0.00    +0.030 A 
ENDBRANCH   1   2
BRANCH   1   8
ATOM      8  N   LIG    1       -2.040  -0.199   1.594  0.00  0.00    -0.510 N 
ATOM      9  H   LIG    1       -1.756  -0.337   0.636  0.00  0.00    +0.420 HD
ATOM     10  H   LIG    1       -1.552   0.596   1.979  0.00  0.00    +0.420 HD
BRANCH   8  11
ATOM     11  C   LIG    1       -1.716  -1.398   2.379  0.00  0.00    +0.170 C 
ATOM     12  C   LIG    1       -1.970  -1.121   3.862  0.00  0.00    +0.080 C 
BRANCH  11  14
ATOM     13  C   LIG    1       -0.016  -2.158   0.713  0.00  0.00    +0.030 C 
ATOM     14  C   LIG    1       -0.244  -1.760   2.172  0.00  0.00    +0.050 C 
ENDBRANCH  11  14
ENDBRANCH   8  11
ENDBRANCH   1   8
BRANCH   1  15
ATOM     15  C   LIG    1       -3.870   1.079   0.587  0.00  0.00    +0.060 C 
ATOM     16  C   LIG    1       -3.618   0.501  -0.807  0.00  0.00    +0.030 C 
ENDBRANCH   1  15
TORSDOF 5
ENDMDL
MODEL       57
REMARK  Name = ZINC000019882849
REMARK                            x       y       z     vdW  Elec       q    Type
REMARK                         _______ _______ _______ _____ _____    ______ ____
ROOT
ATOM      1  C   LIG    1       -3.495  -0.564   1.238  0.00  0.00    +0.270 C 
ATOM      2  C   LIG    1       -4.225   0.235   0.157  0.00  0.00    +0.100 C 
ENDROOT
BRANCH   1   3
ATOM      3  C   LIG    1       -4.131  -0.293   2.578  0.00  0.00    -0.280 A 
ATOM      4  C   LIG    1       -5.001  -1.097   3.192  0.00  0.00    +0.090 A 
ATOM      5  C   LIG    1       -5.452  -0.639   4.418  0.00  0.00    +0.000 A 
ATOM      6  C   LIG    1       -4.948   0.536   4.799  0.00  0.00    -0.120 A 
ATOM      7  C   LIG    1       -5.278   1.246   6.087  0.00  0.00    +0.160 C 
ATOM      8  S   LIG    1       -3.835   1.126   3.572  0.00  0.00    +0.100 S 
ENDBRANCH   1   3
BRANCH   1   9
ATOM      9  N   LIG    1       -2.083  -0.161   1.276  0.00  0.00    -0.510 N 
ATOM     10  H   LIG    1       -2.022   0.838   1.404  0.00  0.00    +0.420 HD
ATOM     11  H   LIG    1       -1.621  -0.627   2.043  0.00  0.00    +0.430 HD
BRANCH   9  12
ATOM     12  C   LIG    1       -1.433  -0.534   0.013  0.00  0.00    +0.160 C 
ATOM     13  C   LIG    1       -1.416  -2.058  -0.121  0.00  0.00    +0.090 C 
BRANCH  12  15
ATOM     14  C   LIG    1       -0.019   1.526   0.010  0.00  0.00    +0.030 C 
ATOM     15  C   LIG    1        0.002  -0.004   0.002  0.00  0.00    +0.050 C 
ENDBRANCH  12  15
ENDBRANCH   9  12
ENDBRANCH   1   9
TORSDOF 4
ENDMDL
MODEL       58
REMARK  Name = ZINC000019945266
REMARK                            x       y       z     vdW  Elec       q    Type
REMARK                         _______ _______ _______ _____ _____    ______ ____
ROOT
ATOM      1  N   LIG    1       -1.316  -0.797   2.423  0.00  0.00    -0.510 N 
ATOM      2  H   LIG    1       -1.138  -1.781   2.552  0.00  0.00    +0.420 HD
ATOM      3  H   LIG    1       -1.794  -0.654   1.546  0.00  0.00    +0.420 HD
ENDROOT
BRANCH   1   4
ATOM      4  C   LIG    1       -2.153  -0.301   3.523  0.00  0.00    +0.160 C 
ATOM      5  C   LIG    1       -3.414  -1.160   3.632  0.00  0.00    +0.040 C 
ATOM      6  C   LIG    1       -4.285  -0.644   4.779  0.00  0.00    +0.040 C 
ATOM      7  C   LIG    1       -4.680   0.809   4.505  0.00  0.00    +0.020 C 
ATOM      8  C   LIG    1       -3.419   1.668   4.396  0.00  0.00    +0.040 C 
ATOM      9  C   LIG    1       -2.547   1.152   3.250  0.00  0.00    -0.020 C 
ATOM     10  C   LIG    1       -3.331   1.229   1.938  0.00  0.00    +0.040 C 
ENDBRANCH   1   4
BRANCH   1  11
ATOM     11  C   LIG    1       -0.041  -0.067   2.409  0.00  0.00    +0.160 C 
ATOM     12  C   LIG    1        0.745  -0.389   3.682  0.00  0.00    +0.090 C 
BRANCH  11  13
ATOM     13  C   LIG    1        0.775  -0.488   1.186  0.00  0.00    +0.060 C 
BRANCH  13  15
ATOM     14  C   LIG    1       -0.011   1.475  -0.146  0.00  0.00    +0.030 C 
ATOM     15  C   LIG    1        0.047  -0.053  -0.087  0.00  0.00    -0.050 C 
ATOM     16  C   LIG    1        0.798  -0.582  -1.311  0.00  0.00    +0.050 C 
ENDBRANCH  13  15
ENDBRANCH  11  13
ENDBRANCH   1  11
TORSDOF 4
ENDMDL
MODEL       59
REMARK  Name = ZINC000019945272
REMARK                            x       y       z     vdW  Elec       q    Type
REMARK                         _______ _______ _______ _____ _____    ______ ____
ROOT
ATOM      1  N   LIG    1       -1.334  -0.823   2.503  0.00  0.00    -0.510 N 
ATOM      2  H   LIG    1       -1.178  -1.816   2.582  0.00  0.00    +0.420 HD
ATOM      3  H   LIG    1       -1.826  -0.626   1.645  0.00  0.00    +0.420 HD
ENDROOT
BRANCH   1   4
ATOM      4  C   LIG    1       -2.135  -0.361   3.644  0.00  0.00    +0.160 C 
ATOM      5  C   LIG    1       -2.476   1.119   3.462  0.00  0.00    +0.040 C 
ATOM      6  C   LIG    1       -3.311   1.600   4.651  0.00  0.00    +0.030 C 
ATOM      7  C   LIG    1       -4.603   0.785   4.730  0.00  0.00    +0.020 C 
ATOM      8  C   LIG    1       -4.262  -0.696   4.912  0.00  0.00    +0.060 C 
ATOM      9  C   LIG    1       -3.427  -1.176   3.724  0.00  0.00    -0.020 C 
ATOM     10  C   LIG    1       -3.086  -2.657   3.906  0.00  0.00    +0.040 C 
ENDBRANCH   1   4
BRANCH   1  11
ATOM     11  C   LIG    1       -0.042  -0.124   2.497  0.00  0.00    +0.160 C 
ATOM     12  C   LIG    1        0.758  -0.520   3.740  0.00  0.00    +0.090 C 
BRANCH  11  13
ATOM     13  C   LIG    1        0.742  -0.511   1.242  0.00  0.00    +0.060 C 
BRANCH  13  15
ATOM     14  C   LIG    1       -0.019   1.526   0.010  0.00  0.00    +0.030 C 
ATOM     15  C   LIG    1        0.002  -0.004   0.002  0.00  0.00    -0.040 C 
ATOM     16  C   LIG    1        0.718  -0.497  -1.257  0.00  0.00    +0.050 C 
ENDBRANCH  13  15
ENDBRANCH  11  13
ENDBRANCH   1  11
TORSDOF 4
ENDMDL
MODEL       60
REMARK  Name = ZINC000020003465
REMARK                            x       y       z     vdW  Elec       q    Type
REMARK                         _______ _______ _______ _____ _____    ______ ____
ROOT
ATOM      1  N   LIG    1        1.318  -2.497  -2.537  0.00  0.00    -0.510 N 
ATOM      2  H   LIG    1        2.284  -2.220  -2.447  0.00  0.00    +0.420 HD
ATOM      3  H   LIG    1        0.930  -2.098  -3.379  0.00  0.00    +0.430 HD
ENDROOT
BRANCH   1   4
ATOM      4  C   LIG    1        1.234  -3.962  -2.606  0.00  0.00    +0.160 C 
ATOM      5  C   LIG    1       -0.179  -4.372  -2.924  0.00  0.00    +0.020 C 
ATOM      6  C   LIG    1       -0.575  -5.697  -2.243  0.00  0.00    +0.030 C 
ATOM      7  C   LIG    1        0.544  -6.754  -2.296  0.00  0.00    +0.000 C 
ATOM      8  C   LIG    1        1.235  -6.795  -3.633  0.00  0.00    +0.020 C 
ATOM      9  C   LIG    1        2.484  -5.892  -3.566  0.00  0.00    +0.020 C 
ATOM     10  C   LIG    1        2.159  -4.482  -3.725  0.00  0.00    +0.040 C 
ENDBRANCH   1   4
BRANCH   1  11
ATOM     11  C   LIG    1        0.560  -2.017  -1.374  0.00  0.00    +0.160 C 
ATOM     12  C   LIG    1        1.240  -2.497  -0.089  0.00  0.00    +0.080 C 
BRANCH  11  13
ATOM     13  C   LIG    1        0.518  -0.488  -1.388  0.00  0.00    -0.020 C 
ATOM     14  C   LIG    1        1.945   0.062  -1.330  0.00  0.00    +0.040 C 
BRANCH  13  16
ATOM     15  C   LIG    1       -0.420   1.533  -0.257  0.00  0.00    +0.030 C 
ATOM     16  C   LIG    1       -0.271   0.012  -0.176  0.00  0.00    +0.030 C 
ENDBRANCH  13  16
ENDBRANCH  11  13
ENDBRANCH   1  11
TORSDOF 4
ENDMDL
MODEL       61
REMARK  Name = ZINC000020003459
REMARK                            x       y       z     vdW  Elec       q    Type
REMARK                         _______ _______ _______ _____ _____    ______ ____
ROOT
ATOM      1  N   LIG    1        1.274  -2.507  -2.577  0.00  0.00    -0.510 N 
ATOM      2  H   LIG    1        2.242  -2.238  -2.480  0.00  0.00    +0.420 HD
ATOM      3  H   LIG    1        0.895  -2.104  -3.421  0.00  0.00    +0.430 HD
ENDROOT
BRANCH   1   4
ATOM      4  C   LIG    1        1.178  -3.971  -2.649  0.00  0.00    +0.160 C 
ATOM      5  C   LIG    1        1.850  -4.461  -3.904  0.00  0.00    +0.030 C 
ATOM      6  C   LIG    1        1.156  -5.702  -4.497  0.00  0.00    +0.030 C 
ATOM      7  C   LIG    1        0.736  -6.723  -3.423  0.00  0.00    +0.000 C 
ATOM      8  C   LIG    1        1.787  -6.908  -2.362  0.00  0.00    +0.020 C 
ATOM      9  C   LIG    1        1.465  -5.966  -1.184  0.00  0.00    +0.020 C 
ATOM     10  C   LIG    1        1.893  -4.598  -1.434  0.00  0.00    +0.040 C 
ENDBRANCH   1   4
BRANCH   1  11
ATOM     11  C   LIG    1        0.513  -2.023  -1.418  0.00  0.00    +0.160 C 
ATOM     12  C   LIG    1       -0.975  -2.310  -1.629  0.00  0.00    +0.090 C 
BRANCH  11  13
ATOM     13  C   LIG    1        0.725  -0.516  -1.262  0.00  0.00    -0.010 C 
ATOM     14  C   LIG    1        2.213  -0.229  -1.051  0.00  0.00    +0.040 C 
BRANCH  13  16
ATOM     15  C   LIG    1        0.043   1.512   0.028  0.00  0.00    +0.030 C 
ATOM     16  C   LIG    1       -0.068  -0.012  -0.055  0.00  0.00    +0.030 C 
ENDBRANCH  13  16
ENDBRANCH  11  13
ENDBRANCH   1  11
TORSDOF 4
ENDMDL
MODEL       62
REMARK  Name = ZINC000060290893
REMARK                            x       y       z     vdW  Elec       q    Type
REMARK                         _______ _______ _______ _____ _____    ______ ____
ROOT
ATOM      1  C   LIG    1       -0.019   1.526   0.010  0.00  0.00    +0.090 C 
ATOM      2  C   LIG    1        0.002  -0.004   0.002  0.00  0.00    -0.330 C 
ATOM      3  C   LIG    1       -1.432  -0.578   0.123  0.00  0.00    +0.060 C 
ATOM      4  C   LIG    1       -1.418  -1.894   0.917  0.00  0.00    +0.060 C 
ATOM      5  C   LIG    1       -0.578  -1.687   2.212  0.00  0.00    -0.330 C 
ATOM      6  C   LIG    1       -0.069  -3.020   2.763  0.00  0.00    +0.090 C 
ATOM      7  P   LIG    1        0.811  -0.663   1.531  0.00  0.00    +1.600 P 
ATOM      8  H   LIG    1        1.938  -1.467   1.214  0.00  0.00    -0.050 HD
ENDROOT
BRANCH   7   9
ATOM      9  C   LIG    1        1.264   0.683   2.675  0.00  0.00    -0.360 C 
ATOM     10  C   LIG    1        1.842   0.104   3.990  0.00  0.00    +0.040 C 
ATOM     11  C   LIG    1        2.695   1.277   4.534  0.00  0.00    +0.050 C 
ATOM     12  C   LIG    1        3.330   1.899   3.273  0.00  0.00    +0.030 C 
ATOM     13  C   LIG    1        2.420   1.521   2.091  0.00  0.00    +0.040 C 
ENDBRANCH   7   9
TORSDOF 1
ENDMDL
MODEL       63
REMARK  Name = ZINC000034528953
REMARK                            x       y       z     vdW  Elec       q    Type
REMARK                         _______ _______ _______ _____ _____    ______ ____
ROOT
ATOM      1  C   LIG    1       -1.416  -2.058  -0.121  0.00  0.00    +0.170 C 
ATOM      2  C   LIG    1       -2.819  -2.608   0.140  0.00  0.00    +0.060 C 
ATOM      3  C   LIG    1       -3.793  -2.016  -0.883  0.00  0.00    +0.040 C 
ATOM      4  C   LIG    1       -3.295  -2.341  -2.295  0.00  0.00    +0.060 C 
ATOM      5  C   LIG    1       -1.873  -1.800  -2.465  0.00  0.00    +0.160 C 
ATOM      6  N   LIG    1       -0.987  -2.424  -1.476  0.00  0.00    -0.500 N 
ATOM      7  H   LIG    1       -1.024  -3.427  -1.579  0.00  0.00    +0.420 HD
ATOM      8  H   LIG    1       -0.041  -2.106  -1.626  0.00  0.00    +0.420 HD
ENDROOT
BRANCH   1   9
ATOM      9  C   LIG    1       -1.433  -0.534   0.013  0.00  0.00    +0.050 C 
BRANCH   9  11
ATOM     10  C   LIG    1       -0.047   1.539  -0.144  0.00  0.00    +0.050 C 
ATOM     11  C   LIG    1       -0.013   0.009  -0.154  0.00  0.00    -0.050 C 
ATOM     12  C   LIG    1        0.862  -0.488   0.999  0.00  0.00    +0.030 C 
ENDBRANCH   9  11
ENDBRANCH   1   9
BRANCH   5  13
ATOM     13  C   LIG    1       -1.371  -2.123  -3.874  0.00  0.00    +0.060 C 
BRANCH  13  14
ATOM     14  C   LIG    1       -0.002  -1.476  -4.088  0.00  0.00    -0.040 C 
ATOM     15  C   LIG    1       -0.145   0.047  -4.049  0.00  0.00    +0.030 C 
ATOM     16  C   LIG    1        0.556  -1.901  -5.448  0.00  0.00    +0.050 C 
ENDBRANCH  13  14
ENDBRANCH   5  13
TORSDOF 4
ENDMDL
MODEL       64
REMARK  Name = ZINC000034528954
REMARK                            x       y       z     vdW  Elec       q    Type
REMARK                         _______ _______ _______ _____ _____    ______ ____
ROOT
ATOM      1  C   LIG    1       -1.336  -2.103   0.033  0.00  0.00    +0.170 C 
ATOM      2  C   LIG    1       -2.762  -2.635   0.188  0.00  0.00    +0.060 C 
ATOM      3  C   LIG    1       -2.765  -4.148  -0.051  0.00  0.00    +0.040 C 
ATOM      4  C   LIG    1       -2.184  -4.437  -1.438  0.00  0.00    +0.060 C 
ATOM      5  C   LIG    1       -0.779  -3.838  -1.532  0.00  0.00    +0.170 C 
ATOM      6  N   LIG    1       -0.848  -2.387  -1.322  0.00  0.00    -0.500 N 
ATOM      7  H   LIG    1        0.072  -1.987  -1.436  0.00  0.00    +0.420 HD
ATOM      8  H   LIG    1       -1.477  -1.979  -1.997  0.00  0.00    +0.420 HD
ENDROOT
BRANCH   1   9
ATOM      9  C   LIG    1       -1.328  -0.591   0.271  0.00  0.00    +0.060 C 
BRANCH   9  11
ATOM     10  C   LIG    1        0.114   1.448   0.355  0.00  0.00    +0.050 C 
ATOM     11  C   LIG    1        0.114  -0.078   0.242  0.00  0.00    -0.040 C 
ATOM     12  C   LIG    1        0.892  -0.677   1.415  0.00  0.00    +0.030 C 
ENDBRANCH   9  11
ENDBRANCH   1   9
BRANCH   5  13
ATOM     13  C   LIG    1       -0.195  -4.124  -2.917  0.00  0.00    +0.060 C 
BRANCH  13  14
ATOM     14  C   LIG    1        1.258  -3.649  -2.966  0.00  0.00    -0.040 C 
ATOM     15  C   LIG    1        1.799  -3.804  -4.389  0.00  0.00    +0.050 C 
ATOM     16  C   LIG    1        2.102  -4.489  -2.005  0.00  0.00    +0.030 C 
ENDBRANCH  13  14
ENDBRANCH   5  13
TORSDOF 4
ENDMDL
MODEL       65
REMARK  Name = ZINC000037199832
REMARK                            x       y       z     vdW  Elec       q    Type
REMARK                         _______ _______ _______ _____ _____    ______ ____
ROOT
ATOM      1  N   LIG    1       -2.794  -2.566  -0.111  0.00  0.00    -0.510 N 
ATOM      2  H   LIG    1       -3.306  -2.167  -0.883  0.00  0.00    +0.430 HD
ATOM      3  H   LIG    1       -3.240  -2.310   0.757  0.00  0.00    +0.430 HD
ENDROOT
BRANCH   1   4
ATOM      4  C   LIG    1       -2.777  -4.029  -0.239  0.00  0.00    +0.170 C 
ATOM      5  C   LIG    1       -2.110  -4.642   0.994  0.00  0.00    +0.080 C 
BRANCH   4   6
ATOM      6  C   LIG    1       -4.212  -4.548  -0.354  0.00  0.00    -0.010 C 
ATOM      7  C   LIG    1       -4.879  -3.935  -1.587  0.00  0.00    +0.010 C 
ATOM      8  C   LIG    1       -6.314  -4.454  -1.702  0.00  0.00    +0.020 C 
ATOM      9  C   LIG    1       -6.296  -5.978  -1.836  0.00  0.00    +0.010 C 
ATOM     10  C   LIG    1       -5.629  -6.590  -0.603  0.00  0.00    +0.020 C 
ATOM     11  C   LIG    1       -4.194  -6.072  -0.488  0.00  0.00    +0.040 C 
ENDBRANCH   4   6
ENDBRANCH   1   4
BRANCH   1  12
ATOM     12  C   LIG    1       -1.416  -2.058  -0.121  0.00  0.00    +0.240 C 
BRANCH  12  13
ATOM     13  C   LIG    1       -1.433  -0.534   0.013  0.00  0.00    +0.030 C 
BRANCH  13  15
ATOM     14  C   LIG    1       -0.019   1.526   0.010  0.00  0.00    +0.040 C 
ATOM     15  C   LIG    1        0.002  -0.004   0.002  0.00  0.00    -0.010 C 
ATOM     16  C   LIG    1        0.742  -0.511   1.242  0.00  0.00    +0.020 C 
ENDBRANCH  13  15
ENDBRANCH  12  13
ENDBRANCH   1  12
TORSDOF 5
ENDMDL
MODEL       66
REMARK  Name = ZINC000037021604
REMARK                            x       y       z     vdW  Elec       q    Type
REMARK                         _______ _______ _______ _____ _____    ______ ____
ROOT
ATOM      1  N   LIG    1       -1.289  -0.878   2.621  0.00  0.00    -0.510 N 
ATOM      2  H   LIG    1       -1.046  -1.838   2.814  0.00  0.00    +0.420 HD
ATOM      3  H   LIG    1       -1.848  -0.834   1.782  0.00  0.00    +0.420 HD
ENDROOT
BRANCH   1   4
ATOM      4  C   LIG    1       -2.056  -0.330   3.748  0.00  0.00    +0.170 C 
ATOM      5  C   LIG    1       -1.236  -0.459   5.034  0.00  0.00    +0.030 C 
ATOM      6  C   LIG    1       -2.034   0.111   6.207  0.00  0.00    +0.030 C 
ATOM      7  C   LIG    1       -3.344  -0.664   6.358  0.00  0.00    +0.020 C 
ATOM      8  C   LIG    1       -4.164  -0.534   5.073  0.00  0.00    +0.050 C 
ATOM      9  C   LIG    1       -3.366  -1.105   3.899  0.00  0.00    -0.020 C 
ATOM     10  C   LIG    1       -4.186  -0.976   2.614  0.00  0.00    +0.040 C 
ENDBRANCH   1   4
BRANCH   1  11
ATOM     11  C   LIG    1       -0.063  -0.091   2.434  0.00  0.00    +0.160 C 
ATOM     12  C   LIG    1        1.084  -0.741   3.210  0.00  0.00    +0.090 C 
BRANCH  11  13
ATOM     13  C   LIG    1        0.290  -0.043   0.946  0.00  0.00    +0.060 C 
BRANCH  13  15
ATOM     14  C   LIG    1       -0.815   2.177   0.646  0.00  0.00    +0.030 C 
ATOM     15  C   LIG    1       -0.799   0.718   0.187  0.00  0.00    -0.050 C 
ATOM     16  C   LIG    1       -0.510   0.659  -1.314  0.00  0.00    +0.050 C 
ENDBRANCH  13  15
ENDBRANCH  11  13
ENDBRANCH   1  11
TORSDOF 4
ENDMDL
MODEL       67
REMARK  Name = ZINC000037021603
REMARK                            x       y       z     vdW  Elec       q    Type
REMARK                         _______ _______ _______ _____ _____    ______ ____
ROOT
ATOM      1  N   LIG    1       -1.334  -0.823   2.503  0.00  0.00    -0.510 N 
ATOM      2  H   LIG    1       -1.178  -1.816   2.582  0.00  0.00    +0.420 HD
ATOM      3  H   LIG    1       -1.826  -0.626   1.645  0.00  0.00    +0.420 HD
ENDROOT
BRANCH   1   4
ATOM      4  C   LIG    1       -2.135  -0.361   3.644  0.00  0.00    +0.160 C 
ATOM      5  C   LIG    1       -2.476   1.119   3.462  0.00  0.00    +0.040 C 
ATOM      6  C   LIG    1       -3.311   1.600   4.651  0.00  0.00    +0.030 C 
ATOM      7  C   LIG    1       -4.603   0.785   4.730  0.00  0.00    +0.020 C 
ATOM      8  C   LIG    1       -4.262  -0.696   4.912  0.00  0.00    +0.060 C 
ATOM      9  C   LIG    1       -3.427  -1.176   3.724  0.00  0.00    -0.020 C 
ATOM     10  C   LIG    1       -4.226  -0.992   2.432  0.00  0.00    +0.030 C 
ENDBRANCH   1   4
BRANCH   1  11
ATOM     11  C   LIG    1       -0.042  -0.124   2.497  0.00  0.00    +0.160 C 
ATOM     12  C   LIG    1        0.758  -0.520   3.740  0.00  0.00    +0.090 C 
BRANCH  11  13
ATOM     13  C   LIG    1        0.742  -0.511   1.242  0.00  0.00    +0.060 C 
BRANCH  13  15
ATOM     14  C   LIG    1       -0.019   1.526   0.010  0.00  0.00    +0.030 C 
ATOM     15  C   LIG    1        0.002  -0.004   0.002  0.00  0.00    -0.050 C 
ATOM     16  C   LIG    1        0.718  -0.497  -1.257  0.00  0.00    +0.050 C 
ENDBRANCH  13  15
ENDBRANCH  11  13
ENDBRANCH   1  11
TORSDOF 4
ENDMDL
MODEL       68
REMARK  Name = ZINC000037199833
REMARK                            x       y       z     vdW  Elec       q    Type
REMARK                         _______ _______ _______ _____ _____    ______ ____
ROOT
ATOM      1  N   LIG    1       -2.794  -2.566  -0.111  0.00  0.00    -0.510 N 
ATOM      2  H   LIG    1       -3.306  -2.167  -0.883  0.00  0.00    +0.420 HD
ATOM      3  H   LIG    1       -3.240  -2.310   0.757  0.00  0.00    +0.430 HD
ENDROOT
BRANCH   1   4
ATOM      4  C   LIG    1       -2.777  -4.029  -0.239  0.00  0.00    +0.170 C 
ATOM      5  C   LIG    1       -2.214  -4.414  -1.609  0.00  0.00    +0.090 C 
BRANCH   4   6
ATOM      6  C   LIG    1       -4.202  -4.570  -0.104  0.00  0.00    -0.020 C 
ATOM      7  C   LIG    1       -5.051  -4.070  -1.275  0.00  0.00    +0.010 C 
ATOM      8  C   LIG    1       -6.475  -4.611  -1.139  0.00  0.00    +0.020 C 
ATOM      9  C   LIG    1       -6.444  -6.140  -1.148  0.00  0.00    +0.010 C 
ATOM     10  C   LIG    1       -5.595  -6.640   0.023  0.00  0.00    +0.020 C 
ATOM     11  C   LIG    1       -4.170  -6.099  -0.113  0.00  0.00    +0.040 C 
ENDBRANCH   4   6
ENDBRANCH   1   4
BRANCH   1  12
ATOM     12  C   LIG    1       -1.416  -2.058  -0.121  0.00  0.00    +0.240 C 
BRANCH  12  13
ATOM     13  C   LIG    1       -1.433  -0.534   0.013  0.00  0.00    +0.030 C 
BRANCH  13  15
ATOM     14  C   LIG    1       -0.019   1.526   0.010  0.00  0.00    +0.040 C 
ATOM     15  C   LIG    1        0.002  -0.004   0.002  0.00  0.00    -0.010 C 
ATOM     16  C   LIG    1        0.742  -0.511   1.242  0.00  0.00    +0.020 C 
ENDBRANCH  13  15
ENDBRANCH  12  13
ENDBRANCH   1  12
TORSDOF 5
ENDMDL
MODEL       69
REMARK  Name = ZINC000095698203
REMARK                            x       y       z     vdW  Elec       q    Type
REMARK                         _______ _______ _______ _____ _____    ______ ____
ROOT
ATOM      1  C   LIG    1       -0.016   1.351   0.009  0.00  0.00    +0.080 A 
ATOM      2  C   LIG    1       -1.233   2.035   0.031  0.00  0.00    +0.010 A 
ATOM      3  C   LIG    1       -1.244   3.416   0.039  0.00  0.00    +0.090 A 
ATOM      4  C   LIG    1       -0.054   4.121   0.025  0.00  0.00    +0.160 A 
ATOM      5  C   LIG    1        1.155   3.449   0.004  0.00  0.00    +0.090 A 
ATOM      6 CL   LIG    1       -2.728   1.153   0.047  0.00  0.00    +0.000 Cl
ATOM      7  C   LIG    1        1.181   2.068   0.002  0.00  0.00    +0.010 A 
ATOM      8 CL   LIG    1        2.699   1.227  -0.025  0.00  0.00    +0.000 Cl
ENDROOT
BRANCH   1  10
ATOM      9  C   LIG    1        0.018  -1.140  -0.004  0.00  0.00    +0.960 C 
ATOM     10  N   LIG    1        0.002  -0.004   0.002  0.00  0.00    -0.370 NA
ENDBRANCH   1  10
TORSDOF 1
ENDMDL
MODEL       70
REMARK  Name = ZINC000100000329
REMARK                            x       y       z     vdW  Elec       q    Type
REMARK                         _______ _______ _______ _____ _____    ______ ____
ROOT
ATOM      1  C   LIG    1       -0.016   1.351   0.009  0.00  0.00    +0.070 A 
ATOM      2  C   LIG    1       -1.232   2.034   0.031  0.00  0.00    +0.130 A 
ATOM      3  C   LIG    1       -1.245   3.414   0.038  0.00  0.00    +0.090 A 
ATOM      4  C   LIG    1       -0.054   4.121   0.024  0.00  0.00    +0.030 A 
ATOM      5  C   LIG    1        1.156   3.449   0.003  0.00  0.00    +0.090 A 
ATOM      6 CL   LIG    1       -0.079   5.856   0.034  0.00  0.00    +0.010 Cl
ATOM      7  C   LIG    1        1.182   2.068   0.002  0.00  0.00    +0.010 A 
ATOM      8 CL   LIG    1        2.700   1.226  -0.024  0.00  0.00    +0.000 Cl
ENDROOT
BRANCH   1  10
ATOM      9  C   LIG    1        0.018  -1.140  -0.004  0.00  0.00    +0.940 C 
ATOM     10  N   LIG    1        0.002  -0.004   0.002  0.00  0.00    -0.370 NA
ENDBRANCH   1  10
TORSDOF 1
ENDMDL
MODEL       71
REMARK  Name = ZINC000215974891
REMARK                            x       y       z     vdW  Elec       q    Type
REMARK                         _______ _______ _______ _____ _____    ______ ____
ROOT
ATOM      1  C   LIG    1       -0.016   1.351   0.009  0.00  0.00    +0.080 A 
ATOM      2  C   LIG    1       -1.232   2.027   0.030  0.00  0.00    +0.070 A 
ATOM      3  C   LIG    1       -1.249   3.416   0.038  0.00  0.00    +0.150 A 
ATOM      4  C   LIG    1       -0.034   4.120   0.024  0.00  0.00    -0.040 A 
ATOM      5  C   LIG    1       -0.381   5.553   0.037  0.00  0.00    -0.130 A 
ATOM      6  C   LIG    1       -1.782   5.623   0.058  0.00  0.00    +0.150 A 
ATOM      7  C   LIG    1       -2.401   6.869   0.075  0.00  0.00    -0.010 A 
ATOM      8  C   LIG    1       -1.640   8.018   0.071  0.00  0.00    +0.080 A 
ATOM      9  C   LIG    1       -0.255   7.947   0.050  0.00  0.00    +0.000 A 
ATOM     10  C   LIG    1        0.376   6.722   0.034  0.00  0.00    +0.090 A 
ATOM     11  C   LIG    1        1.177   3.429   0.003  0.00  0.00    +0.120 A 
ATOM     12  N   LIG    1       -2.284   4.334   0.058  0.00  0.00    -0.600 N 
ATOM     13  H   LIG    1       -3.227   4.106   0.071  0.00  0.00    +0.430 HD
ATOM     14  C   LIG    1        1.187   2.064   0.002  0.00  0.00    +0.050 A 
ENDROOT
BRANCH   1  16
ATOM     15  C   LIG    1        0.018  -1.140  -0.004  0.00  0.00    +0.910 C 
ATOM     16  N   LIG    1        0.002  -0.004   0.002  0.00  0.00    -0.360 NA
ENDBRANCH   1  16
TORSDOF 1
ENDMDL
MODEL       72
REMARK  Name = ZINC000054554362
REMARK                            x       y       z     vdW  Elec       q    Type
REMARK                         _______ _______ _______ _____ _____    ______ ____
ROOT
ATOM      1  C   LIG    1        0.787  -0.711  -3.171  0.00  0.00    +0.160 C 
ATOM      2  C   LIG    1        0.754  -2.234  -3.034  0.00  0.00    +0.060 C 
ATOM      3  C   LIG    1       -0.673  -2.736  -3.265  0.00  0.00    +0.020 C 
ATOM      4  C   LIG    1       -1.132  -2.340  -4.670  0.00  0.00    +0.000 C 
ATOM      5  C   LIG    1       -1.099  -0.817  -4.807  0.00  0.00    +0.030 C 
ATOM      6  C   LIG    1        0.328  -0.315  -4.576  0.00  0.00    +0.060 C 
ENDROOT
BRANCH   1   7
ATOM      7  N   LIG    1       -0.111  -0.110  -2.175  0.00  0.00    -0.510 N 
ATOM      8  H   LIG    1       -1.066  -0.352  -2.394  0.00  0.00    +0.420 HD
ATOM      9  H   LIG    1        0.123  -0.459  -1.258  0.00  0.00    +0.420 HD
BRANCH   7  10
ATOM     10  C   LIG    1        0.041   1.351  -2.197  0.00  0.00    +0.160 C 
ATOM     11  C   LIG    1        1.457   1.723  -1.753  0.00  0.00    +0.090 C 
BRANCH  10  13
ATOM     12  C   LIG    1       -2.392   1.717  -1.759  0.00  0.00    +0.020 C 
ATOM     13  C   LIG    1       -0.976   1.984  -1.244  0.00  0.00    +0.050 C 
ENDBRANCH  10  13
ENDBRANCH   7  10
ENDBRANCH   1   7
BRANCH   4  14
ATOM     14  C   LIG    1       -2.558  -2.842  -4.901  0.00  0.00    -0.020 C 
ATOM     15  C   LIG    1       -2.591  -4.366  -4.764  0.00  0.00    +0.020 C 
ATOM     16  C   LIG    1       -3.017  -2.447  -6.306  0.00  0.00    +0.020 C 
ENDBRANCH   4  14
TORSDOF 4
ENDMDL
MODEL       73
REMARK  Name = ZINC000019882847
REMARK                            x       y       z     vdW  Elec       q    Type
REMARK                         _______ _______ _______ _____ _____    ______ ____
ROOT
ATOM      1  C   LIG    1       -3.391  -0.544   1.056  0.00  0.00    +0.260 C 
ATOM      2  C   LIG    1       -3.473  -2.067   1.172  0.00  0.00    +0.100 C 
ENDROOT
BRANCH   1   3
ATOM      3  C   LIG    1       -4.330   0.087   2.052  0.00  0.00    -0.280 A 
ATOM      4  C   LIG    1       -5.544   0.562   1.771  0.00  0.00    +0.090 A 
ATOM      5  C   LIG    1       -6.225   1.097   2.850  0.00  0.00    +0.010 A 
ATOM      6  C   LIG    1       -5.565   1.056   4.008  0.00  0.00    -0.120 A 
ATOM      7  C   LIG    1       -6.087   1.571   5.325  0.00  0.00    +0.160 C 
ATOM      8  S   LIG    1       -3.994   0.302   3.765  0.00  0.00    +0.100 S 
ENDBRANCH   1   3
BRANCH   1   9
ATOM      9  N   LIG    1       -2.017  -0.105   1.332  0.00  0.00    -0.510 N 
ATOM     10  H   LIG    1       -1.789  -0.299   2.295  0.00  0.00    +0.420 HD
ATOM     11  H   LIG    1       -1.378  -0.600   0.728  0.00  0.00    +0.430 HD
BRANCH   9  12
ATOM     12  C   LIG    1       -1.905   1.339   1.084  0.00  0.00    +0.160 C 
ATOM     13  C   LIG    1       -2.110   1.618  -0.406  0.00  0.00    +0.090 C 
BRANCH  12  15
ATOM     14  C   LIG    1       -0.359   1.658   3.020  0.00  0.00    +0.030 C 
ATOM     15  C   LIG    1       -0.517   1.823   1.507  0.00  0.00    +0.050 C 
ENDBRANCH  12  15
ENDBRANCH   9  12
ENDBRANCH   1   9
TORSDOF 4
ENDMDL
MODEL       74
REMARK  Name = ZINC000007990648
REMARK                            x       y       z     vdW  Elec       q    Type
REMARK                         _______ _______ _______ _____ _____    ______ ____
ROOT
ATOM      1  C   LIG    1       -1.358  -1.979   0.003  0.00  0.00    +0.170 C 
ATOM      2  C   LIG    1       -0.846  -2.491   1.351  0.00  0.00    +0.060 C 
ATOM      3  C   LIG    1       -1.769  -1.998   2.468  0.00  0.00    +0.020 C 
ATOM      4  C   LIG    1       -3.186  -2.523   2.227  0.00  0.00    +0.010 C 
ATOM      5  C   LIG    1       -3.698  -2.011   0.879  0.00  0.00    +0.020 C 
ATOM      6  C   LIG    1       -2.775  -2.504  -0.237  0.00  0.00    +0.060 C 
ENDROOT
BRANCH   4   7
ATOM      7  C   LIG    1       -4.109  -2.031   3.343  0.00  0.00    -0.060 C 
ATOM      8  C   LIG    1       -3.597  -2.542   4.691  0.00  0.00    +0.030 C 
ATOM      9  C   LIG    1       -5.526  -2.556   3.103  0.00  0.00    +0.030 C 
ATOM     10  C   LIG    1       -4.127  -0.501   3.352  0.00  0.00    +0.010 C 
ENDBRANCH   4   7
BRANCH   1  11
ATOM     11  N   LIG    1       -1.375  -0.510   0.012  0.00  0.00    -0.510 N 
ATOM     12  H   LIG    1       -1.803  -0.174  -0.838  0.00  0.00    +0.420 HD
ATOM     13  H   LIG    1       -1.905  -0.184   0.806  0.00  0.00    +0.420 HD
BRANCH  11  15
ATOM     14  C   LIG    1        0.763  -0.373  -1.174  0.00  0.00    +0.090 C 
ATOM     15  C   LIG    1        0.001  -0.005   0.101  0.00  0.00    +0.160 C 
ATOM     16  C   LIG    1       -0.024   1.517   0.259  0.00  0.00    +0.090 C 
ENDBRANCH  11  15
ENDBRANCH   1  11
TORSDOF 3
ENDMDL
MODEL       75
REMARK  Name = ZINC000019880406
REMARK                            x       y       z     vdW  Elec       q    Type
REMARK                         _______ _______ _______ _____ _____    ______ ____
ROOT
ATOM      1  C   LIG    1       -2.126  -0.031  -1.590  0.00  0.00    +0.170 C 
ATOM      2  C   LIG    1       -2.142   1.449  -1.979  0.00  0.00    +0.060 C 
ATOM      3  C   LIG    1       -2.766   2.267  -0.846  0.00  0.00    +0.010 C 
ATOM      4  C   LIG    1       -4.198   1.789  -0.601  0.00  0.00    +0.030 C 
ATOM      5  C   LIG    1       -4.182   0.309  -0.212  0.00  0.00    +0.020 C 
ATOM      6  C   LIG    1       -3.558  -0.509  -1.345  0.00  0.00    +0.020 C 
ENDROOT
BRANCH   6   7
ATOM      7  C   LIG    1       -3.542  -1.989  -0.956  0.00  0.00    -0.070 C 
ATOM      8  C   LIG    1       -3.032  -2.134   0.479  0.00  0.00    +0.030 C 
ATOM      9  C   LIG    1       -2.619  -2.756  -1.905  0.00  0.00    +0.030 C 
ATOM     10  C   LIG    1       -4.959  -2.557  -1.053  0.00  0.00    +0.050 C 
ENDBRANCH   6   7
BRANCH   1  11
ATOM     11  N   LIG    1       -1.334  -0.206  -0.365  0.00  0.00    -0.510 N 
ATOM     12  H   LIG    1       -0.667   0.546  -0.284  0.00  0.00    +0.420 HD
ATOM     13  H   LIG    1       -1.948  -0.199   0.436  0.00  0.00    +0.430 HD
BRANCH  11  15
ATOM     14  C   LIG    1       -0.028  -1.680  -1.821  0.00  0.00    +0.090 C 
ATOM     15  C   LIG    1       -0.620  -1.489  -0.423  0.00  0.00    +0.150 C 
ATOM     16  C   LIG    1        0.506  -1.493   0.612  0.00  0.00    +0.090 C 
ENDBRANCH  11  15
ENDBRANCH   1  11
TORSDOF 3
ENDMDL
MODEL       76
REMARK  Name = ZINC000037249690
REMARK                            x       y       z     vdW  Elec       q    Type
REMARK                         _______ _______ _______ _____ _____    ______ ____
ROOT
ATOM      1  N   LIG    1       -1.413  -2.002   0.005  0.00  0.00    -0.510 N 
ATOM      2  H   LIG    1       -0.856  -2.336   0.777  0.00  0.00    +0.420 HD
ATOM      3  H   LIG    1       -1.015  -2.329  -0.863  0.00  0.00    +0.420 HD
ENDROOT
BRANCH   1   4
ATOM      4  C   LIG    1       -1.433  -0.534   0.013  0.00  0.00    +0.160 C 
ATOM      5  C   LIG    1       -2.173  -0.027  -1.227  0.00  0.00    +0.090 C 
BRANCH   4   7
ATOM      6  C   LIG    1       -0.019   1.526   0.010  0.00  0.00    +0.070 C 
ATOM      7  C   LIG    1        0.002  -0.004   0.002  0.00  0.00    -0.020 C 
ATOM      8  C   LIG    1        0.742  -0.511   1.242  0.00  0.00    +0.040 C 
ENDBRANCH   4   7
ENDBRANCH   1   4
BRANCH   1   9
ATOM      9  C   LIG    1       -2.785  -2.511   0.136  0.00  0.00    +0.160 C 
ATOM     10  C   LIG    1       -3.345  -2.122   1.505  0.00  0.00    +0.080 C 
BRANCH   9  11
ATOM     11  C   LIG    1       -2.778  -4.036   0.003  0.00  0.00    -0.020 C 
ATOM     12  C   LIG    1       -2.006  -4.647   1.174  0.00  0.00    +0.000 C 
ATOM     13  C   LIG    1       -2.000  -6.171   1.040  0.00  0.00    +0.020 C 
ATOM     14  C   LIG    1       -3.439  -6.690   1.052  0.00  0.00    +0.010 C 
ATOM     15  C   LIG    1       -4.211  -6.079  -0.119  0.00  0.00    +0.020 C 
ATOM     16  C   LIG    1       -4.218  -4.555   0.014  0.00  0.00    +0.040 C 
ENDBRANCH   9  11
ENDBRANCH   1   9
TORSDOF 4
ENDMDL
MODEL       77
REMARK  Name = ZINC000037249692
REMARK                            x       y       z     vdW  Elec       q    Type
REMARK                         _______ _______ _______ _____ _____    ______ ____
ROOT
ATOM      1  N   LIG    1       -1.392  -2.000   0.100  0.00  0.00    -0.510 N 
ATOM      2  H   LIG    1       -1.131  -2.280   1.034  0.00  0.00    +0.420 HD
ATOM      3  H   LIG    1       -0.734  -2.383  -0.562  0.00  0.00    +0.420 HD
ENDROOT
BRANCH   1   4
ATOM      4  C   LIG    1       -1.382  -0.534   0.008  0.00  0.00    +0.160 C 
ATOM      5  C   LIG    1       -0.025  -0.003   0.475  0.00  0.00    +0.080 C 
BRANCH   4   7
ATOM      6  C   LIG    1       -1.612   1.415  -1.539  0.00  0.00    +0.070 C 
ATOM      7  C   LIG    1       -1.622  -0.112  -1.443  0.00  0.00    -0.020 C 
ATOM      8  C   LIG    1       -0.517  -0.687  -2.331  0.00  0.00    +0.040 C 
ENDBRANCH   4   7
ENDBRANCH   1   4
BRANCH   1   9
ATOM      9  C   LIG    1       -2.739  -2.500  -0.203  0.00  0.00    +0.160 C 
ATOM     10  C   LIG    1       -3.713  -2.034   0.881  0.00  0.00    +0.090 C 
BRANCH   9  11
ATOM     11  C   LIG    1       -2.718  -4.029  -0.246  0.00  0.00    -0.020 C 
ATOM     12  C   LIG    1       -2.388  -4.574   1.145  0.00  0.00    +0.010 C 
ATOM     13  C   LIG    1       -2.366  -6.103   1.103  0.00  0.00    +0.020 C 
ATOM     14  C   LIG    1       -3.738  -6.620   0.665  0.00  0.00    +0.010 C 
ATOM     15  C   LIG    1       -4.068  -6.076  -0.726  0.00  0.00    +0.020 C 
ATOM     16  C   LIG    1       -4.089  -4.547  -0.684  0.00  0.00    +0.040 C 
ENDBRANCH   9  11
ENDBRANCH   1   9
TORSDOF 4
ENDMDL
MODEL       78
REMARK  Name = ZINC000020003462
REMARK                            x       y       z     vdW  Elec       q    Type
REMARK                         _______ _______ _______ _____ _____    ______ ____
ROOT
ATOM      1  N   LIG    1        1.464  -2.329  -2.561  0.00  0.00    -0.510 N 
ATOM      2  H   LIG    1        2.389  -1.929  -2.504  0.00  0.00    +0.420 HD
ATOM      3  H   LIG    1        0.966  -1.915  -3.334  0.00  0.00    +0.420 HD
ENDROOT
BRANCH   1   4
ATOM      4  C   LIG    1        1.571  -3.780  -2.769  0.00  0.00    +0.160 C 
ATOM      5  C   LIG    1        2.193  -4.053  -4.112  0.00  0.00    +0.030 C 
ATOM      6  C   LIG    1        1.634  -5.329  -4.771  0.00  0.00    +0.030 C 
ATOM      7  C   LIG    1        1.459  -6.490  -3.774  0.00  0.00    +0.000 C 
ATOM      8  C   LIG    1        2.615  -6.606  -2.817  0.00  0.00    +0.020 C 
ATOM      9  C   LIG    1        2.266  -5.828  -1.531  0.00  0.00    +0.020 C 
ATOM     10  C   LIG    1        2.471  -4.394  -1.678  0.00  0.00    +0.040 C 
ENDBRANCH   1   4
BRANCH   1  11
ATOM     11  C   LIG    1        0.738  -2.066  -1.312  0.00  0.00    +0.160 C 
ATOM     12  C   LIG    1       -0.709  -2.545  -1.452  0.00  0.00    +0.090 C 
BRANCH  11  13
ATOM     13  C   LIG    1        0.751  -0.564  -1.021  0.00  0.00    -0.020 C 
ATOM     14  C   LIG    1       -0.033   0.173  -2.109  0.00  0.00    +0.050 C 
BRANCH  13  16
ATOM     15  C   LIG    1        0.229   1.183   0.687  0.00  0.00    +0.030 C 
ATOM     16  C   LIG    1        0.104  -0.302   0.340  0.00  0.00    +0.030 C 
ENDBRANCH  13  16
ENDBRANCH  11  13
ENDBRANCH   1  11
TORSDOF 4
ENDMDL
MODEL       79
REMARK  Name = ZINC000238853101
REMARK                            x       y       z     vdW  Elec       q    Type
REMARK                         _______ _______ _______ _____ _____    ______ ____
ROOT
ATOM      1  N   LIG    1        1.366  -2.524   2.489  0.00  0.00    -0.510 N 
ATOM      2  H   LIG    1        0.894  -2.199   3.319  0.00  0.00    +0.420 HD
ATOM      3  H   LIG    1        2.312  -2.175   2.482  0.00  0.00    +0.420 HD
ENDROOT
BRANCH   1   4
ATOM      4  C   LIG    1        1.386  -3.993   2.481  0.00  0.00    +0.160 C 
ATOM      5  C   LIG    1        2.209  -4.485   1.288  0.00  0.00    +0.040 C 
ATOM      6  C   LIG    1        2.229  -6.015   1.280  0.00  0.00    +0.030 C 
ATOM      7  C   LIG    1        2.858  -6.524   2.579  0.00  0.00    +0.020 C 
ATOM      8  C   LIG    1        2.035  -6.031   3.771  0.00  0.00    +0.060 C 
ATOM      9  C   LIG    1        2.015  -4.502   3.779  0.00  0.00    -0.020 C 
ATOM     10  C   LIG    1        1.192  -4.009   4.971  0.00  0.00    +0.040 C 
ENDBRANCH   1   4
BRANCH   1  11
ATOM     11  C   LIG    1        0.655  -2.037   1.299  0.00  0.00    +0.160 C 
ATOM     12  C   LIG    1       -0.812  -2.462   1.372  0.00  0.00    +0.080 C 
BRANCH  11  13
ATOM     13  C   LIG    1        0.742  -0.511   1.242  0.00  0.00    -0.020 C 
ATOM     14  C   LIG    1        2.210  -0.086   1.169  0.00  0.00    +0.040 C 
BRANCH  13  16
ATOM     15  C   LIG    1       -0.019   1.526   0.010  0.00  0.00    +0.030 C 
ATOM     16  C   LIG    1        0.002  -0.004   0.002  0.00  0.00    +0.030 C 
ENDBRANCH  13  16
ENDBRANCH  11  13
ENDBRANCH   1  11
TORSDOF 4
ENDMDL
MODEL       80
REMARK  Name = ZINC000059544404
REMARK                            x       y       z     vdW  Elec       q    Type
REMARK                         _______ _______ _______ _____ _____    ______ ____
ROOT
ATOM      1  C   LIG    1       -0.016   1.351   0.009  0.00  0.00    +0.090 A 
ATOM      2  C   LIG    1       -1.232   2.034   0.031  0.00  0.00    +0.120 A 
ATOM      3  C   LIG    1       -1.244   3.416   0.039  0.00  0.00    -0.030 A 
ATOM      4  C   LIG    1       -0.053   4.121   0.026  0.00  0.00    +0.140 A 
ATOM      5  C   LIG    1        1.156   3.449   0.005  0.00  0.00    +0.100 A 
ATOM      6 CL   LIG    1       -2.755   4.268   0.065  0.00  0.00    +0.000 Cl
ATOM      7  C   LIG    1        1.182   2.068   0.002  0.00  0.00    +0.000 A 
ATOM      8 CL   LIG    1        2.700   1.226  -0.025  0.00  0.00    -0.010 Cl
ENDROOT
BRANCH   1  10
ATOM      9  C   LIG    1        0.018  -1.140  -0.004  0.00  0.00    +0.960 C 
ATOM     10  N   LIG    1        0.002  -0.004   0.002  0.00  0.00    -0.370 NA
ENDBRANCH   1  10
TORSDOF 1
ENDMDL
MODEL       81
REMARK  Name = ZINC000238854031
REMARK                            x       y       z     vdW  Elec       q    Type
REMARK                         _______ _______ _______ _____ _____    ______ ____
ROOT
ATOM      1  N   LIG    1       -2.289  -0.175   1.222  0.00  0.00    -0.510 N 
ATOM      2  H   LIG    1       -2.131   0.811   1.369  0.00  0.00    +0.420 HD
ATOM      3  H   LIG    1       -2.035  -0.684   2.056  0.00  0.00    +0.420 HD
ENDROOT
BRANCH   1   4
ATOM      4  C   LIG    1       -3.708  -0.405   0.921  0.00  0.00    +0.160 C 
ATOM      5  C   LIG    1       -4.554  -0.042   2.143  0.00  0.00    +0.040 C 
ATOM      6  C   LIG    1       -6.032  -0.281   1.829  0.00  0.00    +0.040 C 
ATOM      7  C   LIG    1       -6.449   0.591   0.643  0.00  0.00    +0.020 C 
ATOM      8  C   LIG    1       -5.603   0.228  -0.579  0.00  0.00    +0.040 C 
ATOM      9  C   LIG    1       -4.125   0.467  -0.265  0.00  0.00    -0.020 C 
ATOM     10  C   LIG    1       -3.910   1.941   0.084  0.00  0.00    +0.040 C 
ENDBRANCH   1   4
BRANCH   1  11
ATOM     11  C   LIG    1       -1.468  -0.640   0.096  0.00  0.00    +0.160 C 
BRANCH  11  12
ATOM     12  C   LIG    1       -1.600  -2.158  -0.039  0.00  0.00    -0.020 C 
ATOM     13  C   LIG    1       -1.040  -2.833   1.215  0.00  0.00    +0.040 C 
ATOM     14  C   LIG    1       -0.818  -2.631  -1.266  0.00  0.00    +0.070 C 
ENDBRANCH  11  12
BRANCH  11  16
ATOM     15  C   LIG    1        0.150   1.246   0.360  0.00  0.00    +0.030 C 
ATOM     16  C   LIG    1       -0.003  -0.277   0.349  0.00  0.00    +0.060 C 
ENDBRANCH  11  16
ENDBRANCH   1  11
TORSDOF 4
ENDMDL
MODEL       82
REMARK  Name = ZINC000037211445
REMARK                            x       y       z     vdW  Elec       q    Type
REMARK                         _______ _______ _______ _____ _____    ______ ____
ROOT
ATOM      1  N   LIG    1       -2.083  -0.161   1.276  0.00  0.00    -0.510 N 
ATOM      2  H   LIG    1       -2.022   0.838   1.404  0.00  0.00    +0.420 HD
ATOM      3  H   LIG    1       -1.621  -0.627   2.043  0.00  0.00    +0.420 HD
ENDROOT
BRANCH   1   4
ATOM      4  C   LIG    1       -3.495  -0.564   1.238  0.00  0.00    +0.160 C 
ATOM      5  C   LIG    1       -4.225   0.235   0.157  0.00  0.00    +0.040 C 
ATOM      6  C   LIG    1       -5.696  -0.185   0.117  0.00  0.00    +0.030 C 
ATOM      7  C   LIG    1       -6.341   0.090   1.476  0.00  0.00    +0.020 C 
ATOM      8  C   LIG    1       -5.612  -0.709   2.558  0.00  0.00    +0.050 C 
ATOM      9  C   LIG    1       -4.141  -0.289   2.598  0.00  0.00    -0.020 C 
ATOM     10  C   LIG    1       -4.045   1.204   2.916  0.00  0.00    +0.030 C 
ENDBRANCH   1   4
BRANCH   1  11
ATOM     11  C   LIG    1       -1.433  -0.534   0.013  0.00  0.00    +0.160 C 
BRANCH  11  12
ATOM     12  C   LIG    1       -1.416  -2.058  -0.121  0.00  0.00    -0.020 C 
ATOM     13  C   LIG    1       -0.640  -2.664   1.050  0.00  0.00    +0.050 C 
ATOM     14  C   LIG    1       -0.739  -2.446  -1.437  0.00  0.00    +0.070 C 
ENDBRANCH  11  12
BRANCH  11  16
ATOM     15  C   LIG    1       -0.019   1.526   0.010  0.00  0.00    +0.030 C 
ATOM     16  C   LIG    1        0.002  -0.004   0.002  0.00  0.00    +0.060 C 
ENDBRANCH  11  16
ENDBRANCH   1  11
TORSDOF 4
ENDMDL
MODEL       83
REMARK  Name = ZINC000238854032
REMARK                            x       y       z     vdW  Elec       q    Type
REMARK                         _______ _______ _______ _____ _____    ______ ____
ROOT
ATOM      1  N   LIG    1       -2.083  -0.161   1.276  0.00  0.00    -0.510 N 
ATOM      2  H   LIG    1       -2.022   0.838   1.404  0.00  0.00    +0.420 HD
ATOM      3  H   LIG    1       -1.621  -0.627   2.043  0.00  0.00    +0.420 HD
ENDROOT
BRANCH   1   4
ATOM      4  C   LIG    1       -3.495  -0.564   1.238  0.00  0.00    +0.160 C 
ATOM      5  C   LIG    1       -4.225   0.235   0.157  0.00  0.00    +0.040 C 
ATOM      6  C   LIG    1       -5.696  -0.185   0.117  0.00  0.00    +0.040 C 
ATOM      7  C   LIG    1       -6.341   0.090   1.476  0.00  0.00    +0.020 C 
ATOM      8  C   LIG    1       -5.612  -0.709   2.558  0.00  0.00    +0.050 C 
ATOM      9  C   LIG    1       -4.141  -0.289   2.598  0.00  0.00    -0.020 C 
ATOM     10  C   LIG    1       -3.412  -1.088   3.680  0.00  0.00    +0.040 C 
ENDBRANCH   1   4
BRANCH   1  11
ATOM     11  C   LIG    1       -1.433  -0.534   0.013  0.00  0.00    +0.160 C 
BRANCH  11  12
ATOM     12  C   LIG    1       -1.416  -2.058  -0.121  0.00  0.00    -0.020 C 
ATOM     13  C   LIG    1       -0.640  -2.664   1.050  0.00  0.00    +0.050 C 
ATOM     14  C   LIG    1       -0.739  -2.446  -1.437  0.00  0.00    +0.070 C 
ENDBRANCH  11  12
BRANCH  11  16
ATOM     15  C   LIG    1       -0.019   1.526   0.010  0.00  0.00    +0.030 C 
ATOM     16  C   LIG    1        0.002  -0.004   0.002  0.00  0.00    +0.060 C 
ENDBRANCH  11  16
ENDBRANCH   1  11
TORSDOF 4
ENDMDL
MODEL       84
REMARK  Name = ZINC000095698204
REMARK                            x       y       z     vdW  Elec       q    Type
REMARK                         _______ _______ _______ _____ _____    ______ ____
ROOT
ATOM      1  C   LIG    1       -0.016   1.351   0.009  0.00  0.00    +0.090 A 
ATOM      2  C   LIG    1       -1.232   2.034   0.031  0.00  0.00    +0.120 A 
ATOM      3  C   LIG    1       -1.245   3.414   0.039  0.00  0.00    +0.100 A 
ATOM      4  C   LIG    1       -0.056   4.121   0.026  0.00  0.00    +0.140 A 
ATOM      5  C   LIG    1        1.155   3.450   0.005  0.00  0.00    -0.030 A 
ATOM      6 CL   LIG    1        2.642   4.345  -0.011  0.00  0.00    +0.010 Cl
ATOM      7  C   LIG    1        1.181   2.068   0.002  0.00  0.00    +0.000 A 
ATOM      8 CL   LIG    1        2.700   1.227  -0.024  0.00  0.00    +0.000 Cl
ENDROOT
BRANCH   1  10
ATOM      9  C   LIG    1        0.018  -1.140  -0.004  0.00  0.00    +0.960 C 
ATOM     10  N   LIG    1        0.002  -0.004   0.002  0.00  0.00    -0.370 NA
ENDBRANCH   1  10
TORSDOF 1
ENDMDL
MODEL       85
REMARK  Name = ZINC000095698201
REMARK                            x       y       z     vdW  Elec       q    Type
REMARK                         _______ _______ _______ _____ _____    ______ ____
ROOT
ATOM      1  C   LIG    1       -0.016   1.351   0.009  0.00  0.00    +0.090 A 
ATOM      2  C   LIG    1       -1.232   2.034   0.031  0.00  0.00    +0.110 A 
ATOM      3  C   LIG    1       -1.245   3.415   0.039  0.00  0.00    -0.020 A 
ATOM      4  C   LIG    1       -0.054   4.121   0.026  0.00  0.00    +0.130 A 
ATOM      5  C   LIG    1        1.156   3.448   0.005  0.00  0.00    -0.020 A 
ATOM      6 CL   LIG    1        2.644   4.341  -0.011  0.00  0.00    +0.000 Cl
ATOM      7 CL   LIG    1       -2.757   4.268   0.065  0.00  0.00    +0.000 Cl
ATOM      8  C   LIG    1        1.181   2.067   0.002  0.00  0.00    +0.110 A 
ENDROOT
BRANCH   1  10
ATOM      9  C   LIG    1        0.018  -1.140  -0.004  0.00  0.00    +0.950 C 
ATOM     10  N   LIG    1        0.002  -0.004   0.002  0.00  0.00    -0.370 NA
ENDBRANCH   1  10
TORSDOF 1
ENDMDL
MODEL       86
REMARK  Name = ZINC000095698202
REMARK                            x       y       z     vdW  Elec       q    Type
REMARK                         _______ _______ _______ _____ _____    ______ ____
ROOT
ATOM      1  C   LIG    1       -0.016   1.351   0.009  0.00  0.00    +0.080 A 
ATOM      2  C   LIG    1       -1.232   2.034   0.031  0.00  0.00    +0.120 A 
ATOM      3  C   LIG    1       -1.246   3.414   0.038  0.00  0.00    +0.100 A 
ATOM      4  C   LIG    1       -0.056   4.121   0.025  0.00  0.00    +0.020 A 
ATOM      5  C   LIG    1        1.156   3.447   0.004  0.00  0.00    -0.030 A 
ATOM      6 CL   LIG    1        2.644   4.341  -0.013  0.00  0.00    +0.010 Cl
ATOM      7 CL   LIG    1       -0.080   5.856   0.035  0.00  0.00    +0.010 Cl
ATOM      8  C   LIG    1        1.181   2.067   0.002  0.00  0.00    +0.120 A 
ENDROOT
BRANCH   1  10
ATOM      9  C   LIG    1        0.018  -1.140  -0.004  0.00  0.00    +0.940 C 
ATOM     10  N   LIG    1        0.002  -0.004   0.002  0.00  0.00    -0.370 NA
ENDBRANCH   1  10
TORSDOF 1
ENDMDL
MODEL       87
REMARK  Name = ZINC000100000332
REMARK                            x       y       z     vdW  Elec       q    Type
REMARK                         _______ _______ _______ _____ _____    ______ ____
ROOT
ATOM      1  C   LIG    1       -0.016   1.351   0.009  0.00  0.00    +0.050 A 
ATOM      2  C   LIG    1       -1.232   2.034   0.031  0.00  0.00    +0.090 A 
ATOM      3  C   LIG    1       -1.244   3.414   0.038  0.00  0.00    +0.050 A 
ATOM      4  C   LIG    1       -0.054   4.119   0.025  0.00  0.00    +0.110 A 
ATOM      5  C   LIG    1        1.155   3.447   0.004  0.00  0.00    +0.060 A 
ATOM      6  C   LIG    1        1.181   2.068   0.002  0.00  0.00    -0.020 A 
ENDROOT
BRANCH   1   8
ATOM      7  C   LIG    1        0.018  -1.140  -0.004  0.00  0.00    +0.910 C 
ATOM      8  N   LIG    1        0.002  -0.004   0.002  0.00  0.00    -0.350 NA
ENDBRANCH   1   8
BRANCH   6   9
ATOM      9  C   LIG    1        2.498   1.337  -0.020  0.00  0.00    -0.010 C 
ATOM     10  C   LIG    1        3.314   1.719   1.216  0.00  0.00    +0.060 C 
BRANCH   9  11
ATOM     11  C   LIG    1        3.273   1.721  -1.282  0.00  0.00    +0.030 C 
ATOM     12  C   LIG    1        4.553   0.887  -1.368  0.00  0.00    +0.020 C 
ENDBRANCH   9  11
ENDBRANCH   6   9
TORSDOF 3
ENDMDL
MODEL       88
REMARK  Name = ZINC000100000333
REMARK                            x       y       z     vdW  Elec       q    Type
REMARK                         _______ _______ _______ _____ _____    ______ ____
ROOT
ATOM      1  C   LIG    1       -0.016   1.351   0.009  0.00  0.00    +0.050 A 
ATOM      2  C   LIG    1       -1.232   2.034   0.031  0.00  0.00    +0.090 A 
ATOM      3  C   LIG    1       -1.244   3.414   0.038  0.00  0.00    +0.050 A 
ATOM      4  C   LIG    1       -0.054   4.119   0.025  0.00  0.00    +0.110 A 
ATOM      5  C   LIG    1        1.155   3.447   0.004  0.00  0.00    +0.060 A 
ATOM      6  C   LIG    1        1.181   2.068   0.002  0.00  0.00    -0.020 A 
ENDROOT
BRANCH   1   8
ATOM      7  C   LIG    1        0.018  -1.140  -0.004  0.00  0.00    +0.910 C 
ATOM      8  N   LIG    1        0.002  -0.004   0.002  0.00  0.00    -0.350 NA
ENDBRANCH   1   8
BRANCH   6   9
ATOM      9  C   LIG    1        2.498   1.337  -0.020  0.00  0.00    -0.010 C 
ATOM     10  C   LIG    1        3.273   1.721  -1.282  0.00  0.00    +0.060 C 
BRANCH   9  11
ATOM     11  C   LIG    1        3.314   1.719   1.216  0.00  0.00    +0.030 C 
ATOM     12  C   LIG    1        4.596   0.885   1.259  0.00  0.00    +0.020 C 
ENDBRANCH   9  11
ENDBRANCH   6   9
TORSDOF 3
ENDMDL
MODEL       89
REMARK  Name = ZINC000098074348
REMARK                            x       y       z     vdW  Elec       q    Type
REMARK                         _______ _______ _______ _____ _____    ______ ____
ROOT
ATOM      1  C   LIG    1       -0.019   1.526   0.010  0.00  0.00    +0.100 C 
ATOM      2  C   LIG    1        0.002  -0.004   0.002  0.00  0.00    -0.350 C 
ATOM      3  C   LIG    1        0.839  -0.552  -1.191  0.00  0.00    +0.070 C 
ATOM      4  C   LIG    1        1.286  -1.986  -0.862  0.00  0.00    +0.060 C 
ATOM      5  C   LIG    1        1.885  -2.050   0.566  0.00  0.00    -0.340 C 
ATOM      6  C   LIG    1        1.578  -3.395   1.227  0.00  0.00    +0.090 C 
ATOM      7  P   LIG    1        0.991  -0.673   1.421  0.00  0.00    +1.710 P 
ATOM      8  H   LIG    1        1.897   0.299   1.921  0.00  0.00    -0.070 HD
ENDROOT
BRANCH   7   9
ATOM      9  C   LIG    1       -0.090  -1.306   2.746  0.00  0.00    -0.300 C 
ATOM     10  C   LIG    1        0.737  -1.956   3.833  0.00  0.00    -0.040 C 
ATOM     11  C   LIG    1        0.509  -1.275   4.948  0.00  0.00    +0.060 C 
ATOM     12  C   LIG    1       -0.434  -0.181   4.702  0.00  0.00    +0.060 C 
ATOM     13  C   LIG    1       -0.808  -0.164   3.429  0.00  0.00    -0.040 C 
ENDBRANCH   7   9
TORSDOF 1
ENDMDL
MODEL       90
REMARK  Name = ZINC000098074351
REMARK                            x       y       z     vdW  Elec       q    Type
REMARK                         _______ _______ _______ _____ _____    ______ ____
ROOT
ATOM      1  C   LIG    1       -0.019   1.526   0.010  0.00  0.00    +0.090 C 
ATOM      2  C   LIG    1        0.002  -0.004   0.002  0.00  0.00    -0.350 C 
ATOM      3  C   LIG    1       -1.432  -0.578   0.123  0.00  0.00    +0.060 C 
ATOM      4  C   LIG    1       -1.418  -1.894   0.917  0.00  0.00    +0.060 C 
ATOM      5  C   LIG    1       -0.578  -1.687   2.212  0.00  0.00    -0.350 C 
ATOM      6  C   LIG    1       -0.069  -3.020   2.763  0.00  0.00    +0.100 C 
ATOM      7  P   LIG    1        0.811  -0.663   1.531  0.00  0.00    +1.710 P 
ATOM      8  H   LIG    1        1.938  -1.467   1.214  0.00  0.00    -0.070 HD
ENDROOT
BRANCH   7   9
ATOM      9  C   LIG    1        1.264   0.683   2.675  0.00  0.00    -0.300 C 
ATOM     10  C   LIG    1        1.808   0.113   3.966  0.00  0.00    -0.030 C 
ATOM     11  C   LIG    1        3.054   0.553   4.085  0.00  0.00    +0.060 C 
ATOM     12  C   LIG    1        3.414   1.401   2.946  0.00  0.00    +0.060 C 
ATOM     13  C   LIG    1        2.397   1.502   2.099  0.00  0.00    -0.040 C 
ENDBRANCH   7   9
TORSDOF 1
ENDMDL
MODEL       91
REMARK  Name = ZINC000149896246
REMARK                            x       y       z     vdW  Elec       q    Type
REMARK                         _______ _______ _______ _____ _____    ______ ____
ROOT
ATOM      1  C   LIG    1       -1.294  -1.971  -0.665  0.00  0.00    +0.160 C 
ATOM      2  C   LIG    1       -2.533  -2.753  -1.107  0.00  0.00    +0.060 C 
ATOM      3  C   LIG    1       -2.154  -4.220  -1.324  0.00  0.00    +0.030 C 
ATOM      4  C   LIG    1       -1.546  -4.776  -0.033  0.00  0.00    +0.060 C 
ATOM      5  C   LIG    1       -0.344  -3.920   0.369  0.00  0.00    +0.170 C 
ATOM      6  N   LIG    1       -0.777  -2.534   0.587  0.00  0.00    -0.500 N 
ATOM      7  H   LIG    1       -1.503  -2.517   1.287  0.00  0.00    +0.430 HD
ATOM      8  H   LIG    1        0.007  -1.984   0.904  0.00  0.00    +0.430 HD
ENDROOT
BRANCH   1   9
ATOM      9  C   LIG    1       -1.669  -0.503  -0.448  0.00  0.00    +0.040 C 
BRANCH   9  11
ATOM     10  C   LIG    1       -2.587   1.544  -1.546  0.00  0.00    +0.040 C 
ATOM     11  C   LIG    1       -2.072   0.124  -1.784  0.00  0.00    -0.010 C 
ATOM     12  C   LIG    1       -0.856   0.171  -2.712  0.00  0.00    +0.020 C 
ENDBRANCH   9  11
ENDBRANCH   1   9
BRANCH   5  13
ATOM     13  C   LIG    1        0.703  -3.956  -0.747  0.00  0.00    +0.040 C 
BRANCH  13  14
ATOM     14  C   LIG    1        1.247  -5.379  -0.889  0.00  0.00    -0.010 C 
ATOM     15  C   LIG    1        2.024  -5.756   0.374  0.00  0.00    +0.020 C 
ATOM     16  C   LIG    1        2.178  -5.449  -2.101  0.00  0.00    +0.040 C 
ENDBRANCH  13  14
ENDBRANCH   5  13
TORSDOF 4
ENDMDL
MODEL       92
REMARK  Name = ZINC000150309881
REMARK                            x       y       z     vdW  Elec       q    Type
REMARK                         _______ _______ _______ _____ _____    ______ ____
ROOT
ATOM      1  C   LIG    1       -0.016   1.351   0.009  0.00  0.00    +0.040 A 
ATOM      2  C   LIG    1       -1.234   2.033   0.031  0.00  0.00    +0.100 A 
ATOM      3  C   LIG    1       -1.252   3.409   0.039  0.00  0.00    +0.050 A 
ATOM      4  C   LIG    1       -0.054   4.123   0.026  0.00  0.00    +0.050 A 
ATOM      5  C   LIG    1        1.163   3.442   0.005  0.00  0.00    +0.050 A 
ATOM      6  C   LIG    1        1.183   2.066   0.002  0.00  0.00    +0.100 A 
ENDROOT
BRANCH   4   7
ATOM      7  C   LIG    1       -0.074   5.606   0.034  0.00  0.00    -0.100 A 
ATOM      8  C   LIG    1       -1.290   6.287   0.061  0.00  0.00    +0.060 A 
ATOM      9  C   LIG    1       -1.305   7.666   0.069  0.00  0.00    -0.010 A 
ATOM     10  C   LIG    1       -0.112   8.376   0.050  0.00  0.00    +0.140 A 
ATOM     11  C   LIG    1        1.101   7.699   0.024  0.00  0.00    -0.010 A 
ATOM     12  C   LIG    1        1.123   6.321   0.021  0.00  0.00    +0.060 A 
BRANCH  10  13
ATOM     13  O   LIG    1       -0.130   9.734   0.057  0.00  0.00    -0.500 OA
ATOM     14  H   LIG    1       -0.118  10.123   0.943  0.00  0.00    +0.400 HD
ENDBRANCH  10  13
ENDBRANCH   4   7
BRANCH   1  16
ATOM     15  C   LIG    1        0.018  -1.140  -0.004  0.00  0.00    +0.910 C 
ATOM     16  N   LIG    1        0.002  -0.004   0.002  0.00  0.00    -0.360 NA
ENDBRANCH   1  16
TORSDOF 3
ENDMDL
MODEL       93
REMARK  Name = ZINC000002389437
REMARK                            x       y       z     vdW  Elec       q    Type
REMARK                         _______ _______ _______ _____ _____    ______ ____
ROOT
ATOM      1  N   LIG    1       -2.140   0.062   1.188  0.00  0.00    -0.510 N 
ATOM      2  H   LIG    1       -1.686  -0.207   2.048  0.00  0.00    +0.430 HD
ATOM      3  H   LIG    1       -3.059  -0.351   1.149  0.00  0.00    +0.420 HD
ENDROOT
BRANCH   1   4
ATOM      4  C   LIG    1       -2.258   1.526   1.134  0.00  0.00    +0.230 C 
ATOM      5  C   LIG    1       -3.078   1.926  -0.094  0.00  0.00    +0.090 C 
BRANCH   4   6
ATOM      6  C   LIG    1       -2.945   2.021   2.380  0.00  0.00    -0.140 A 
ATOM      7  C   LIG    1       -4.008   1.314   2.910  0.00  0.00    +0.000 A 
ATOM      8  C   LIG    1       -4.638   1.768   4.054  0.00  0.00    +0.040 A 
ATOM      9  C   LIG    1       -4.205   2.929   4.667  0.00  0.00    +0.050 A 
ATOM     10  C   LIG    1       -3.141   3.634   4.138  0.00  0.00    +0.040 A 
ATOM     11  C   LIG    1       -2.508   3.178   2.997  0.00  0.00    +0.040 A 
ENDBRANCH   4   6
ENDBRANCH   1   4
BRANCH   1  12
ATOM     12  C   LIG    1       -1.343  -0.407   0.046  0.00  0.00    +0.160 C 
BRANCH  12  14
ATOM     13  C   LIG    1        0.897  -0.303  -1.054  0.00  0.00    +0.060 C 
ATOM     14  C   LIG    1        0.093   0.101   0.183  0.00  0.00    +0.030 C 
ENDBRANCH  12  14
BRANCH  12  15
ATOM     15  C   LIG    1       -1.342  -1.937   0.020  0.00  0.00    +0.060 C 
ATOM     16  C   LIG    1       -2.762  -2.443  -0.242  0.00  0.00    +0.030 C 
ENDBRANCH  12  15
ENDBRANCH   1  12
TORSDOF 5
ENDMDL
MODEL       94
REMARK  Name = ZINC000020306224
REMARK                            x       y       z     vdW  Elec       q    Type
REMARK                         _______ _______ _______ _____ _____    ______ ____
ROOT
ATOM      1  C   LIG    1        0.423  -0.234   1.323  0.00  0.00    -0.010 C 
ATOM      2  C   LIG    1       -0.363   0.005   2.613  0.00  0.00    +0.030 C 
ATOM      3  C   LIG    1        0.468  -0.460   3.811  0.00  0.00    +0.060 C 
ATOM      4  C   LIG    1        0.776  -1.952   3.669  0.00  0.00    +0.170 C 
ATOM      5  C   LIG    1        1.562  -2.190   2.379  0.00  0.00    +0.060 C 
ATOM      6  C   LIG    1        0.731  -1.726   1.182  0.00  0.00    +0.020 C 
ENDROOT
BRANCH   4   7
ATOM      7  N   LIG    1       -0.482  -2.709   3.623  0.00  0.00    -0.510 N 
ATOM      8  H   LIG    1       -0.283  -3.681   3.437  0.00  0.00    +0.420 HD
ATOM      9  H   LIG    1       -1.070  -2.340   2.891  0.00  0.00    +0.420 HD
BRANCH   7  10
ATOM     10  C   LIG    1       -1.174  -2.589   4.913  0.00  0.00    +0.160 C 
ATOM     11  C   LIG    1       -0.347  -3.277   6.001  0.00  0.00    +0.090 C 
BRANCH  10  12
ATOM     12  C   LIG    1       -2.548  -3.256   4.819  0.00  0.00    -0.020 C 
ATOM     13  C   LIG    1       -3.375  -2.569   3.731  0.00  0.00    +0.040 C 
ATOM     14  C   LIG    1       -3.268  -3.131   6.163  0.00  0.00    +0.070 C 
ENDBRANCH  10  12
ENDBRANCH   7  10
ENDBRANCH   4   7
BRANCH   1  16
ATOM     15  C   LIG    1       -0.610   1.746   0.202  0.00  0.00    +0.020 C 
ATOM     16  C   LIG    1       -0.408   0.231   0.125  0.00  0.00    +0.010 C 
ENDBRANCH   1  16
TORSDOF 4
ENDMDL
MODEL       95
REMARK  Name = ZINC000238853103
REMARK                            x       y       z     vdW  Elec       q    Type
REMARK                         _______ _______ _______ _____ _____    ______ ____
ROOT
ATOM      1  N   LIG    1        1.366  -2.524   2.489  0.00  0.00    -0.510 N 
ATOM      2  H   LIG    1        0.894  -2.199   3.319  0.00  0.00    +0.420 HD
ATOM      3  H   LIG    1        2.312  -2.175   2.482  0.00  0.00    +0.420 HD
ENDROOT
BRANCH   1   4
ATOM      4  C   LIG    1        1.386  -3.993   2.481  0.00  0.00    +0.160 C 
ATOM      5  C   LIG    1        2.209  -4.485   1.288  0.00  0.00    +0.040 C 
ATOM      6  C   LIG    1        2.229  -6.015   1.280  0.00  0.00    +0.030 C 
ATOM      7  C   LIG    1        2.858  -6.524   2.579  0.00  0.00    +0.020 C 
ATOM      8  C   LIG    1        2.035  -6.031   3.771  0.00  0.00    +0.060 C 
ATOM      9  C   LIG    1        2.015  -4.502   3.779  0.00  0.00    -0.020 C 
ATOM     10  C   LIG    1        3.446  -3.973   3.894  0.00  0.00    +0.030 C 
ENDBRANCH   1   4
BRANCH   1  11
ATOM     11  C   LIG    1        0.655  -2.037   1.299  0.00  0.00    +0.160 C 
ATOM     12  C   LIG    1       -0.812  -2.462   1.372  0.00  0.00    +0.090 C 
BRANCH  11  13
ATOM     13  C   LIG    1        0.742  -0.511   1.242  0.00  0.00    -0.010 C 
ATOM     14  C   LIG    1        2.210  -0.086   1.169  0.00  0.00    +0.040 C 
BRANCH  13  16
ATOM     15  C   LIG    1       -0.019   1.526   0.010  0.00  0.00    +0.030 C 
ATOM     16  C   LIG    1        0.002  -0.004   0.002  0.00  0.00    +0.030 C 
ENDBRANCH  13  16
ENDBRANCH  11  13
ENDBRANCH   1  11
TORSDOF 4
ENDMDL
MODEL       96
REMARK  Name = ZINC000238853102
REMARK                            x       y       z     vdW  Elec       q    Type
REMARK                         _______ _______ _______ _____ _____    ______ ____
ROOT
ATOM      1  N   LIG    1        1.222  -2.623   2.507  0.00  0.00    -0.510 N 
ATOM      2  H   LIG    1        0.633  -2.367   3.285  0.00  0.00    +0.420 HD
ATOM      3  H   LIG    1        2.164  -2.304   2.678  0.00  0.00    +0.420 HD
ENDROOT
BRANCH   1   4
ATOM      4  C   LIG    1        1.221  -4.084   2.352  0.00  0.00    +0.170 C 
ATOM      5  C   LIG    1       -0.214  -4.574   2.150  0.00  0.00    +0.030 C 
ATOM      6  C   LIG    1       -0.216  -6.096   1.989  0.00  0.00    +0.030 C 
ATOM      7  C   LIG    1        0.371  -6.742   3.246  0.00  0.00    +0.020 C 
ATOM      8  C   LIG    1        1.806  -6.252   3.448  0.00  0.00    +0.050 C 
ATOM      9  C   LIG    1        1.808  -4.730   3.609  0.00  0.00    -0.020 C 
ATOM     10  C   LIG    1        3.243  -4.240   3.811  0.00  0.00    +0.040 C 
ENDBRANCH   1   4
BRANCH   1  11
ATOM     11  C   LIG    1        0.710  -2.001   1.279  0.00  0.00    +0.170 C 
ATOM     12  C   LIG    1       -0.795  -1.759   1.419  0.00  0.00    +0.080 C 
BRANCH  11  13
ATOM     13  C   LIG    1        1.421  -0.666   1.048  0.00  0.00    -0.010 C 
ATOM     14  C   LIG    1        2.926  -0.908   0.908  0.00  0.00    +0.040 C 
BRANCH  13  16
ATOM     15  C   LIG    1        1.508   1.372  -0.395  0.00  0.00    +0.030 C 
ATOM     16  C   LIG    1        0.888  -0.018  -0.231  0.00  0.00    +0.030 C 
ENDBRANCH  13  16
ENDBRANCH  11  13
ENDBRANCH   1  11
TORSDOF 4
ENDMDL
MODEL       97
REMARK  Name = ZINC000020564816
REMARK                            x       y       z     vdW  Elec       q    Type
REMARK                         _______ _______ _______ _____ _____    ______ ____
ROOT
ATOM      1  C   LIG    1        0.506  -1.815  -1.375  0.00  0.00    -0.010 C 
ATOM      2  C   LIG    1       -0.889  -2.428  -1.523  0.00  0.00    +0.030 C 
ATOM      3  C   LIG    1       -0.788  -3.952  -1.437  0.00  0.00    +0.060 C 
ATOM      4  C   LIG    1        0.117  -4.468  -2.557  0.00  0.00    +0.170 C 
ATOM      5  C   LIG    1        1.511  -3.855  -2.409  0.00  0.00    +0.060 C 
ATOM      6  C   LIG    1        1.411  -2.331  -2.495  0.00  0.00    +0.020 C 
ENDROOT
BRANCH   4   7
ATOM      7  N   LIG    1       -0.449  -4.087  -3.858  0.00  0.00    -0.510 N 
ATOM      8  H   LIG    1        0.193  -4.346  -4.593  0.00  0.00    +0.420 HD
ATOM      9  H   LIG    1       -0.601  -3.090  -3.880  0.00  0.00    +0.420 HD
BRANCH   7  10
ATOM     10  C   LIG    1       -1.727  -4.782  -4.058  0.00  0.00    +0.160 C 
ATOM     11  C   LIG    1       -1.478  -6.288  -4.168  0.00  0.00    +0.090 C 
BRANCH  10  12
ATOM     12  C   LIG    1       -2.385  -4.279  -5.345  0.00  0.00    +0.050 C 
ATOM     13  C   LIG    1       -2.748  -2.801  -5.188  0.00  0.00    +0.030 C 
ENDBRANCH  10  12
ENDBRANCH   7  10
ENDBRANCH   4   7
BRANCH   1  14
ATOM     14  C   LIG    1        0.405  -0.291  -1.461  0.00  0.00    +0.010 C 
BRANCH  14  16
ATOM     15  C   LIG    1       -0.498   1.760  -0.356  0.00  0.00    +0.010 C 
ATOM     16  C   LIG    1       -0.397   0.236  -0.270  0.00  0.00    -0.010 C 
ENDBRANCH  14  16
ENDBRANCH   1  14
TORSDOF 5
ENDMDL
MODEL       98
REMARK  Name = ZINC000001683599
REMARK                            x       y       z     vdW  Elec       q    Type
REMARK                         _______ _______ _______ _____ _____    ______ ____
ROOT
ATOM      1  N   LIG    1        2.163  -4.524  -3.741  0.00  0.00    -0.510 N 
ATOM      2  H   LIG    1        3.110  -4.175  -3.748  0.00  0.00    +0.430 HD
ATOM      3  H   LIG    1        1.675  -4.190  -4.559  0.00  0.00    +0.430 HD
ENDROOT
BRANCH   1   4
ATOM      4  C   LIG    1        1.476  -4.051  -2.532  0.00  0.00    +0.250 C 
BRANCH   4   5
ATOM      5  C   LIG    1        1.455  -2.521  -2.524  0.00  0.00    +0.030 C 
BRANCH   5   6
ATOM      6  C   LIG    1        0.739  -2.027  -1.265  0.00  0.00    +0.020 C 
BRANCH   6   7
ATOM      7  C   LIG    1        0.718  -0.497  -1.257  0.00  0.00    +0.020 C 
BRANCH   7   9
ATOM      8  C   LIG    1       -0.019   1.526   0.010  0.00  0.00    +0.020 C 
ATOM      9  C   LIG    1        0.002  -0.004   0.002  0.00  0.00    -0.010 C 
ENDBRANCH   7   9
ENDBRANCH   6   7
ENDBRANCH   5   6
ENDBRANCH   4   5
ENDBRANCH   1   4
BRANCH   1  10
ATOM     10  C   LIG    1        2.183  -5.993  -3.749  0.00  0.00    +0.250 C 
BRANCH  10  11
ATOM     11  C   LIG    1        2.900  -6.487  -5.008  0.00  0.00    +0.030 C 
BRANCH  11  12
ATOM     12  C   LIG    1        2.920  -8.016  -5.016  0.00  0.00    +0.020 C 
BRANCH  12  13
ATOM     13  C   LIG    1        3.636  -8.510  -6.275  0.00  0.00    +0.020 C 
BRANCH  13  14
ATOM     14  C   LIG    1        3.657 -10.040  -6.284  0.00  0.00    -0.010 C 
ATOM     15  C   LIG    1        4.373 -10.533  -7.542  0.00  0.00    +0.020 C 
ENDBRANCH  13  14
ENDBRANCH  12  13
ENDBRANCH  11  12
ENDBRANCH  10  11
ENDBRANCH   1  10
TORSDOF 10
ENDMDL
MODEL       99
REMARK  Name = ZINC000019901307
REMARK                            x       y       z     vdW  Elec       q    Type
REMARK                         _______ _______ _______ _____ _____    ______ ____
ROOT
ATOM      1  N   LIG    1        1.523  -4.016   2.465  0.00  0.00    -0.510 N 
ATOM      2  H   LIG    1        1.995  -4.342   1.634  0.00  0.00    +0.420 HD
ATOM      3  H   LIG    1        0.576  -4.366   2.472  0.00  0.00    +0.430 HD
ENDROOT
BRANCH   1   4
ATOM      4  C   LIG    1        2.233  -4.503   3.655  0.00  0.00    +0.220 C 
ATOM      5  C   LIG    1        3.701  -4.078   3.582  0.00  0.00    +0.090 C 
BRANCH   4   6
ATOM      6  C   LIG    1        2.148  -6.007   3.711  0.00  0.00    -0.150 A 
ATOM      7  C   LIG    1        2.275  -6.750   2.552  0.00  0.00    +0.000 A 
ATOM      8  C   LIG    1        2.197  -8.129   2.604  0.00  0.00    +0.040 A 
ATOM      9  C   LIG    1        1.992  -8.765   3.814  0.00  0.00    +0.050 A 
ATOM     10  C   LIG    1        1.865  -8.022   4.973  0.00  0.00    +0.030 A 
ATOM     11  C   LIG    1        1.948  -6.643   4.922  0.00  0.00    +0.040 A 
ENDBRANCH   4   6
ENDBRANCH   1   4
BRANCH   1  12
ATOM     12  C   LIG    1        1.503  -2.548   2.473  0.00  0.00    +0.250 C 
BRANCH  12  13
ATOM     13  C   LIG    1        0.763  -2.041   1.233  0.00  0.00    +0.030 C 
BRANCH  13  14
ATOM     14  C   LIG    1        0.742  -0.511   1.242  0.00  0.00    +0.020 C 
BRANCH  14  16
ATOM     15  C   LIG    1       -0.019   1.526   0.010  0.00  0.00    +0.020 C 
ATOM     16  C   LIG    1        0.002  -0.004   0.002  0.00  0.00    +0.010 C 
ENDBRANCH  14  16
ENDBRANCH  13  14
ENDBRANCH  12  13
ENDBRANCH   1  12
TORSDOF 6
ENDMDL
MODEL      100
REMARK  Name = ZINC000019901350
REMARK                            x       y       z     vdW  Elec       q    Type
REMARK                         _______ _______ _______ _____ _____    ______ ____
ROOT
ATOM      1  N   LIG    1       -2.828  -4.062   0.007  0.00  0.00    -0.510 N 
ATOM      2  H   LIG    1       -2.340  -4.396   0.825  0.00  0.00    +0.420 HD
ATOM      3  H   LIG    1       -2.356  -4.387  -0.823  0.00  0.00    +0.430 HD
ENDROOT
BRANCH   1   4
ATOM      4  C   LIG    1       -4.206  -4.570   0.018  0.00  0.00    +0.270 C 
ATOM      5  C   LIG    1       -4.883  -4.182   1.334  0.00  0.00    +0.100 C 
BRANCH   4   6
ATOM      6  C   LIG    1       -4.189  -6.072  -0.114  0.00  0.00    -0.280 A 
ATOM      7  C   LIG    1       -5.039  -6.788  -0.851  0.00  0.00    +0.090 A 
ATOM      8  C   LIG    1       -4.828  -8.156  -0.819  0.00  0.00    +0.020 A 
ATOM      9  C   LIG    1       -3.807  -8.550  -0.056  0.00  0.00    +0.020 A 
ATOM     10  S   LIG    1       -3.040  -7.145   0.673  0.00  0.00    +0.110 S 
ENDBRANCH   4   6
ENDBRANCH   1   4
BRANCH   1  11
ATOM     11  C   LIG    1       -2.848  -2.593   0.015  0.00  0.00    +0.260 C 
BRANCH  11  12
ATOM     12  C   LIG    1       -1.413  -2.063   0.004  0.00  0.00    +0.030 C 
BRANCH  12  13
ATOM     13  C   LIG    1       -1.433  -0.534   0.013  0.00  0.00    +0.020 C 
BRANCH  13  15
ATOM     14  C   LIG    1       -0.019   1.526   0.010  0.00  0.00    +0.020 C 
ATOM     15  C   LIG    1        0.002  -0.004   0.002  0.00  0.00    +0.010 C 
ENDBRANCH  13  15
ENDBRANCH  12  13
ENDBRANCH  11  12
ENDBRANCH   1  11
TORSDOF 6
ENDMDL
MODEL      101
REMARK  Name = ZINC000001675345
REMARK                            x       y       z     vdW  Elec       q    Type
REMARK                         _______ _______ _______ _____ _____    ______ ____
ROOT
ATOM      1  N   LIG    1        1.317  -2.495  -2.531  0.00  0.00    -0.390 N 
ATOM      2  H   LIG    1        0.856  -1.974  -3.261  0.00  0.00    +0.420 HD
ENDROOT
BRANCH   1   3
ATOM      3  C   LIG    1        0.758  -2.111  -1.228  0.00  0.00    +0.240 C 
BRANCH   3   4
ATOM      4  C   LIG    1        0.846  -0.593  -1.062  0.00  0.00    +0.030 C 
BRANCH   4   6
ATOM      5  C   LIG    1        0.232   1.339   0.399  0.00  0.00    +0.030 C 
ATOM      6  C   LIG    1        0.144  -0.179   0.234  0.00  0.00    +0.020 C 
ENDBRANCH   4   6
ENDBRANCH   3   4
ENDBRANCH   1   3
BRANCH   1   7
ATOM      7  C   LIG    1        1.109  -3.932  -2.749  0.00  0.00    +0.250 C 
BRANCH   7   8
ATOM      8  C   LIG    1       -0.390  -4.221  -2.851  0.00  0.00    +0.030 C 
BRANCH   8   9
ATOM      9  C   LIG    1       -0.606  -5.719  -3.078  0.00  0.00    +0.020 C 
ATOM     10  C   LIG    1       -2.105  -6.007  -3.180  0.00  0.00    +0.030 C 
ENDBRANCH   8   9
ENDBRANCH   7   8
ENDBRANCH   1   7
BRANCH   1  11
ATOM     11  C   LIG    1        2.756  -2.199  -2.552  0.00  0.00    +0.250 C 
BRANCH  11  12
ATOM     12  C   LIG    1        3.310  -2.463  -3.954  0.00  0.00    +0.030 C 
BRANCH  12  13
ATOM     13  C   LIG    1        4.776  -2.030  -4.013  0.00  0.00    +0.020 C 
ATOM     14  C   LIG    1        5.330  -2.294  -5.414  0.00  0.00    +0.030 C 
ENDBRANCH  12  13
ENDBRANCH  11  12
ENDBRANCH   1  11
TORSDOF 9
ENDMDL
MODEL      102
REMARK  Name = ZINC000021012088
REMARK                            x       y       z     vdW  Elec       q    Type
REMARK                         _______ _______ _______ _____ _____    ______ ____
ROOT
ATOM      1  C   LIG    1        1.493  -3.996   2.415  0.00  0.00    +0.170 C 
ATOM      2  C   LIG    1        2.316  -4.489   1.223  0.00  0.00    +0.060 C 
ATOM      3  C   LIG    1        3.747  -3.960   1.338  0.00  0.00    +0.020 C 
ATOM      4  C   LIG    1        4.376  -4.468   2.637  0.00  0.00    -0.010 C 
ATOM      5  C   LIG    1        3.553  -3.976   3.829  0.00  0.00    +0.020 C 
ATOM      6  C   LIG    1        2.122  -4.505   3.714  0.00  0.00    +0.060 C 
ENDROOT
BRANCH   1   7
ATOM      7  N   LIG    1        1.473  -2.527   2.423  0.00  0.00    -0.510 N 
ATOM      8  H   LIG    1        1.001  -2.202   3.253  0.00  0.00    +0.430 HD
ATOM      9  H   LIG    1        2.420  -2.178   2.416  0.00  0.00    +0.420 HD
BRANCH   7  10
ATOM     10  C   LIG    1        0.763  -2.041   1.233  0.00  0.00    +0.250 C 
BRANCH  10  11
ATOM     11  C   LIG    1        0.742  -0.511   1.242  0.00  0.00    +0.030 C 
BRANCH  11  13
ATOM     12  C   LIG    1       -0.019   1.526   0.010  0.00  0.00    +0.030 C 
ATOM     13  C   LIG    1        0.002  -0.004   0.002  0.00  0.00    +0.020 C 
ENDBRANCH  11  13
ENDBRANCH  10  11
ENDBRANCH   7  10
ENDBRANCH   1   7
BRANCH   4  14
ATOM     14  C   LIG    1        5.807  -3.940   2.752  0.00  0.00    +0.010 C 
BRANCH  14  15
ATOM     15  C   LIG    1        6.478  -4.547   3.985  0.00  0.00    -0.010 C 
ATOM     16  C   LIG    1        7.909  -4.019   4.100  0.00  0.00    +0.010 C 
ENDBRANCH  14  15
ENDBRANCH   4  14
TORSDOF 6
ENDMDL
MODEL      103
REMARK  Name = ZINC000002491556
REMARK                            x       y       z     vdW  Elec       q    Type
REMARK                         _______ _______ _______ _____ _____    ______ ____
ROOT
ATOM      1  N   LIG    1        2.912  -2.139   2.403  0.00  0.00    -0.510 N 
ATOM      2  H   LIG    1        2.967  -1.139   2.282  0.00  0.00    +0.420 HD
ATOM      3  H   LIG    1        3.356  -2.597   1.621  0.00  0.00    +0.430 HD
ENDROOT
BRANCH   1   4
ATOM      4  C   LIG    1        1.503  -2.548   2.473  0.00  0.00    +0.170 C 
ATOM      5  C   LIG    1        1.416  -4.074   2.530  0.00  0.00    +0.090 C 
BRANCH   4   6
ATOM      6  C   LIG    1        0.763  -2.041   1.233  0.00  0.00    +0.050 C 
BRANCH   6   7
ATOM      7  C   LIG    1        0.742  -0.511   1.242  0.00  0.00    -0.000 C 
BRANCH   7   9
ATOM      8  C   LIG    1       -0.019   1.526   0.010  0.00  0.00    +0.010 C 
ATOM      9  C   LIG    1        0.002  -0.004   0.002  0.00  0.00    +0.010 C 
ENDBRANCH   7   9
ENDBRANCH   6   7
ENDBRANCH   4   6
ENDBRANCH   1   4
BRANCH   1  10
ATOM     10  C   LIG    1        3.595  -2.521   3.646  0.00  0.00    +0.250 C 
BRANCH  10  11
ATOM     11  C   LIG    1        5.063  -2.096   3.573  0.00  0.00    -0.020 C 
ATOM     12  C   LIG    1        5.150  -0.570   3.516  0.00  0.00    +0.010 C 
ATOM     13  C   LIG    1        6.617  -0.144   3.443  0.00  0.00    +0.020 C 
ATOM     14  C   LIG    1        7.357  -0.651   4.682  0.00  0.00    +0.010 C 
ATOM     15  C   LIG    1        7.271  -2.178   4.739  0.00  0.00    +0.020 C 
ATOM     16  C   LIG    1        5.803  -2.603   4.812  0.00  0.00    +0.030 C 
ENDBRANCH  10  11
ENDBRANCH   1  10
TORSDOF 6
ENDMDL
MODEL      104
REMARK  Name = ZINC000001622063
REMARK                            x       y       z     vdW  Elec       q    Type
REMARK                         _______ _______ _______ _____ _____    ______ ____
ROOT
ATOM      1  C   LIG    1        1.471  -3.995   2.295  0.00  0.00    +0.230 C 
ENDROOT
BRANCH   1   2
ATOM      2  C   LIG    1        2.195  -4.508   3.513  0.00  0.00    -0.140 A 
ATOM      3  C   LIG    1        2.020  -3.884   4.734  0.00  0.00    +0.000 A 
ATOM      4  C   LIG    1        2.684  -4.354   5.852  0.00  0.00    +0.040 A 
ATOM      5  C   LIG    1        3.522  -5.449   5.748  0.00  0.00    +0.050 A 
ATOM      6  C   LIG    1        3.696  -6.073   4.527  0.00  0.00    +0.040 A 
ATOM      7  C   LIG    1        3.029  -5.605   3.411  0.00  0.00    +0.040 A 
ENDBRANCH   1   2
BRANCH   1   8
ATOM      8  N   LIG    1        1.476  -2.526   2.304  0.00  0.00    -0.510 N 
ATOM      9  H   LIG    1        0.918  -2.183   1.536  0.00  0.00    +0.430 HD
ATOM     10  H   LIG    1        1.091  -2.194   3.175  0.00  0.00    +0.420 HD
BRANCH   8  11
ATOM     11  C   LIG    1        2.856  -2.041   2.162  0.00  0.00    +0.250 C 
BRANCH  11  12
ATOM     12  C   LIG    1        2.850  -0.515   2.045  0.00  0.00    +0.030 C 
BRANCH  12  14
ATOM     13  C   LIG    1        4.281   1.516   1.780  0.00  0.00    +0.030 C 
ATOM     14  C   LIG    1        4.286  -0.010   1.897  0.00  0.00    +0.020 C 
ENDBRANCH  12  14
ENDBRANCH  11  12
ENDBRANCH   8  11
ENDBRANCH   1   8
BRANCH   1  15
ATOM     15  C   LIG    1        0.027  -4.500   2.309  0.00  0.00    +0.060 C 
ATOM     16  C   LIG    1       -0.670  -4.090   1.011  0.00  0.00    +0.030 C 
ENDBRANCH   1  15
TORSDOF 6
ENDMDL
MODEL      105
REMARK  Name = ZINC000001720041
REMARK                            x       y       z     vdW  Elec       q    Type
REMARK                         _______ _______ _______ _____ _____    ______ ____
ROOT
ATOM      1  C   LIG    1        0.060   1.449  -0.204  0.00  0.00    +0.320 C 
ATOM      2  N   LIG    1        0.002  -0.004   0.002  0.00  0.00    -0.380 N 
ATOM      3  H   LIG    1        0.475  -0.471  -0.757  0.00  0.00    +0.420 HD
ENDROOT
BRANCH   2   4
ATOM      4  C   LIG    1       -1.401  -0.437   0.045  0.00  0.00    +0.160 C 
ATOM      5  C   LIG    1       -2.135   0.321   1.153  0.00  0.00    +0.030 C 
ATOM      6  C   LIG    1       -3.596  -0.130   1.198  0.00  0.00    +0.030 C 
ATOM      7  C   LIG    1       -4.262   0.164  -0.148  0.00  0.00    +0.020 C 
ATOM      8  C   LIG    1       -3.528  -0.593  -1.256  0.00  0.00    +0.030 C 
ATOM      9  C   LIG    1       -2.067  -0.143  -1.301  0.00  0.00    +0.040 C 
ENDBRANCH   2   4
BRANCH   2  10
ATOM     10  C   LIG    1        0.659  -0.345   1.271  0.00  0.00    +0.160 C 
ATOM     11  C   LIG    1        0.565  -1.854   1.504  0.00  0.00    +0.040 C 
ATOM     12  C   LIG    1        1.248  -2.210   2.826  0.00  0.00    +0.030 C 
ATOM     13  C   LIG    1        2.720  -1.793   2.767  0.00  0.00    +0.020 C 
ATOM     14  C   LIG    1        2.814  -0.284   2.534  0.00  0.00    +0.030 C 
ATOM     15  C   LIG    1        2.130   0.071   1.212  0.00  0.00    +0.040 C 
ENDBRANCH   2  10
TORSDOF 2
ENDMDL
MODEL      106
REMARK  Name = ZINC000001765050
REMARK                            x       y       z     vdW  Elec       q    Type
REMARK                         _______ _______ _______ _____ _____    ______ ____
ROOT
ATOM      1  P   LIG    1       -2.204  -0.836   0.142  0.00  0.00    +1.810 P 
ATOM      2  H   LIG    1       -2.240  -2.233   0.394  0.00  0.00    -0.110 HD
ENDROOT
BRANCH   1   4
ATOM      3  C   LIG    1       -0.500   1.295   0.420  0.00  0.00    +0.080 C 
ATOM      4  C   LIG    1       -0.493  -0.231   0.317  0.00  0.00    -0.400 C 
ATOM      5  C   LIG    1        0.131  -0.825   1.582  0.00  0.00    +0.080 C 
ENDBRANCH   1   4
BRANCH   1   6
ATOM      6  C   LIG    1       -2.794  -0.508  -1.551  0.00  0.00    -0.410 C 
ATOM      7  C   LIG    1       -1.969  -1.327  -2.546  0.00  0.00    +0.090 C 
ATOM      8  C   LIG    1       -2.640   0.981  -1.866  0.00  0.00    +0.080 C 
ENDBRANCH   1   6
BRANCH   1   9
ATOM      9  C   LIG    1       -3.278   0.025   1.337  0.00  0.00    -0.410 C 
ATOM     10  C   LIG    1       -2.925  -0.424   2.756  0.00  0.00    +0.090 C 
ATOM     11  C   LIG    1       -4.741  -0.314   1.044  0.00  0.00    +0.090 C 
ENDBRANCH   1   9
TORSDOF 3
ENDMDL
MODEL      107
REMARK  Name = ZINC000002491558
REMARK                            x       y       z     vdW  Elec       q    Type
REMARK                         _______ _______ _______ _____ _____    ______ ____
ROOT
ATOM      1  N   LIG    1        0.750  -2.176   3.678  0.00  0.00    -0.510 N 
ATOM      2  H   LIG    1       -0.137  -2.656   3.682  0.00  0.00    +0.420 HD
ATOM      3  H   LIG    1        0.594  -1.179   3.683  0.00  0.00    +0.430 HD
ENDROOT
BRANCH   1   4
ATOM      4  C   LIG    1        1.503  -2.548   2.473  0.00  0.00    +0.170 C 
ATOM      5  C   LIG    1        1.633  -4.070   2.402  0.00  0.00    +0.090 C 
BRANCH   4   6
ATOM      6  C   LIG    1        0.763  -2.041   1.233  0.00  0.00    +0.050 C 
BRANCH   6   7
ATOM      7  C   LIG    1        0.742  -0.511   1.242  0.00  0.00    -0.000 C 
BRANCH   7   9
ATOM      8  C   LIG    1       -0.019   1.526   0.010  0.00  0.00    +0.010 C 
ATOM      9  C   LIG    1        0.002  -0.004   0.002  0.00  0.00    +0.010 C 
ENDBRANCH   7   9
ENDBRANCH   6   7
ENDBRANCH   4   6
ENDBRANCH   1   4
BRANCH   1  10
ATOM     10  C   LIG    1        1.518  -2.556   4.872  0.00  0.00    +0.250 C 
BRANCH  10  11
ATOM     11  C   LIG    1        0.735  -2.169   6.127  0.00  0.00    -0.020 C 
ATOM     12  C   LIG    1       -0.555  -2.990   6.197  0.00  0.00    +0.010 C 
ATOM     13  C   LIG    1       -1.338  -2.602   7.453  0.00  0.00    +0.020 C 
ATOM     14  C   LIG    1       -0.487  -2.884   8.692  0.00  0.00    +0.010 C 
ATOM     15  C   LIG    1        0.802  -2.063   8.623  0.00  0.00    +0.020 C 
ATOM     16  C   LIG    1        1.586  -2.450   7.367  0.00  0.00    +0.030 C 
ENDBRANCH  10  11
ENDBRANCH   1  10
TORSDOF 6
ENDMDL
MODEL      108
REMARK  Name = ZINC000002732127
REMARK                            x       y       z     vdW  Elec       q    Type
REMARK                         _______ _______ _______ _____ _____    ______ ____
ROOT
ATOM      1  C   LIG    1        0.632  -2.000  -1.327  0.00  0.00    -0.040 A 
ATOM      2  C   LIG    1        1.163  -2.772  -0.311  0.00  0.00    +0.040 A 
ATOM      3  C   LIG    1        1.084  -4.150  -0.376  0.00  0.00    +0.050 A 
ATOM      4  C   LIG    1        0.472  -4.757  -1.457  0.00  0.00    -0.160 A 
ATOM      5  C   LIG    1       -0.060  -3.986  -2.473  0.00  0.00    +0.000 A 
ATOM      6  C   LIG    1        0.016  -2.607  -2.406  0.00  0.00    +0.020 A 
ENDROOT
BRANCH   1   7
ATOM      7  C   LIG    1        0.718  -0.497  -1.257  0.00  0.00    +0.020 C 
ATOM      8  C   LIG    1        2.187  -0.073  -1.207  0.00  0.00    +0.040 C 
BRANCH   7  10
ATOM      9  C   LIG    1       -0.019   1.526   0.010  0.00  0.00    +0.020 C 
ATOM     10  C   LIG    1        0.002  -0.004   0.002  0.00  0.00    +0.010 C 
ENDBRANCH   7  10
ENDBRANCH   1   7
BRANCH   4  11
ATOM     11  C   LIG    1        0.386  -6.260  -1.528  0.00  0.00    +0.240 C 
BRANCH  11  12
ATOM     12  N   LIG    1       -0.929  -6.651  -2.053  0.00  0.00    -0.640 N 
ATOM     13  H   LIG    1       -1.652  -6.301  -1.442  0.00  0.00    +0.440 HD
ATOM     14  H   LIG    1       -0.987  -7.657  -2.100  0.00  0.00    +0.440 HD
ATOM     15  H   LIG    1       -1.052  -6.263  -2.976  0.00  0.00    +0.430 HD
ENDBRANCH  11  12
BRANCH  11  16
ATOM     16  C   LIG    1        1.483  -6.791  -2.454  0.00  0.00    +0.060 C 
ATOM     17  C   LIG    1        1.476  -8.321  -2.429  0.00  0.00    +0.030 C 
ENDBRANCH  11  16
ENDBRANCH   4  11
TORSDOF 5
ENDMDL
MODEL      109
REMARK  Name = ZINC000002732128
REMARK                            x       y       z     vdW  Elec       q    Type
REMARK                         _______ _______ _______ _____ _____    ______ ____
ROOT
ATOM      1  C   LIG    1        0.847  -1.998  -1.206  0.00  0.00    -0.040 A 
ATOM      2  C   LIG    1       -0.286  -2.787  -1.141  0.00  0.00    +0.040 A 
ATOM      3  C   LIG    1       -0.167  -4.164  -1.094  0.00  0.00    +0.050 A 
ATOM      4  C   LIG    1        1.084  -4.751  -1.113  0.00  0.00    -0.160 A 
ATOM      5  C   LIG    1        2.217  -3.962  -1.179  0.00  0.00    +0.000 A 
ATOM      6  C   LIG    1        2.098  -2.585  -1.230  0.00  0.00    +0.020 A 
ENDROOT
BRANCH   1   7
ATOM      7  C   LIG    1        0.718  -0.497  -1.257  0.00  0.00    +0.020 C 
ATOM      8  C   LIG    1       -0.089  -0.097  -2.493  0.00  0.00    +0.040 C 
BRANCH   7  10
ATOM      9  C   LIG    1       -0.019   1.526   0.010  0.00  0.00    +0.020 C 
ATOM     10  C   LIG    1        0.002  -0.004   0.002  0.00  0.00    +0.010 C 
ENDBRANCH   7  10
ENDBRANCH   1   7
BRANCH   4  11
ATOM     11  C   LIG    1        1.213  -6.252  -1.061  0.00  0.00    +0.240 C 
BRANCH  11  12
ATOM     12  N   LIG    1        2.283  -6.683  -1.971  0.00  0.00    -0.640 N 
ATOM     13  H   LIG    1        2.059  -6.396  -2.912  0.00  0.00    +0.440 HD
ATOM     14  H   LIG    1        2.369  -7.687  -1.936  0.00  0.00    +0.440 HD
ATOM     15  H   LIG    1        3.155  -6.260  -1.689  0.00  0.00    +0.430 HD
ENDBRANCH  11  12
BRANCH  11  16
ATOM     16  C   LIG    1        1.552  -6.686   0.366  0.00  0.00    +0.060 C 
ATOM     17  C   LIG    1        1.561  -8.213   0.447  0.00  0.00    +0.030 C 
ENDBRANCH  11  16
ENDBRANCH   4  11
TORSDOF 5
ENDMDL
MODEL      110
REMARK  Name = ZINC000002732126
REMARK                            x       y       z     vdW  Elec       q    Type
REMARK                         _______ _______ _______ _____ _____    ______ ____
ROOT
ATOM      1  C   LIG    1       -1.414  -2.036   0.129  0.00  0.00    -0.160 A 
ATOM      2  C   LIG    1       -1.167  -2.812  -0.989  0.00  0.00    +0.000 A 
ATOM      3  C   LIG    1       -1.149  -4.190  -0.883  0.00  0.00    +0.020 A 
ATOM      4  C   LIG    1       -1.377  -4.792   0.341  0.00  0.00    -0.040 A 
ATOM      5  C   LIG    1       -1.622  -4.016   1.458  0.00  0.00    +0.040 A 
ATOM      6  C   LIG    1       -1.637  -2.638   1.353  0.00  0.00    +0.050 A 
ENDROOT
BRANCH   4   7
ATOM      7  C   LIG    1       -1.358  -6.295   0.456  0.00  0.00    +0.020 C 
ATOM      8  C   LIG    1       -0.270  -6.716   1.446  0.00  0.00    +0.040 C 
BRANCH   7   9
ATOM      9  C   LIG    1       -2.718  -6.785   0.955  0.00  0.00    +0.010 C 
ATOM     10  C   LIG    1       -2.741  -8.315   0.953  0.00  0.00    +0.020 C 
ENDBRANCH   7   9
ENDBRANCH   4   7
BRANCH   1  11
ATOM     11  C   LIG    1       -1.433  -0.534   0.013  0.00  0.00    +0.240 C 
BRANCH  11  12
ATOM     12  N   LIG    1       -2.107  -0.147  -1.234  0.00  0.00    -0.640 N 
ATOM     13  H   LIG    1       -2.120   0.859  -1.311  0.00  0.00    +0.440 HD
ATOM     14  H   LIG    1       -3.054  -0.496  -1.227  0.00  0.00    +0.440 HD
ATOM     15  H   LIG    1       -1.610  -0.539  -2.020  0.00  0.00    +0.430 HD
ENDBRANCH  11  12
BRANCH  11  17
ATOM     16  C   LIG    1       -0.019   1.526   0.010  0.00  0.00    +0.030 C 
ATOM     17  C   LIG    1        0.002  -0.004   0.002  0.00  0.00    +0.060 C 
ENDBRANCH  11  17
ENDBRANCH   1  11
TORSDOF 5
ENDMDL
MODEL      111
REMARK  Name = ZINC000004578798
REMARK                            x       y       z     vdW  Elec       q    Type
REMARK                         _______ _______ _______ _____ _____    ______ ____
ROOT
ATOM      1  C   LIG    1        0.814  -2.831  -2.994  0.00  0.00    +0.170 C 
ATOM      2  C   LIG    1        1.432  -3.016  -1.606  0.00  0.00    +0.090 C 
ENDROOT
BRANCH   1   3
ATOM      3  N   LIG    1        0.880  -1.414  -3.374  0.00  0.00    -0.510 N 
ATOM      4  H   LIG    1        1.834  -1.093  -3.313  0.00  0.00    +0.430 HD
ATOM      5  H   LIG    1        0.548  -1.304  -4.321  0.00  0.00    +0.430 HD
BRANCH   3   6
ATOM      6  C   LIG    1        0.038  -0.624  -2.466  0.00  0.00    +0.250 C 
BRANCH   6   7
ATOM      7  C   LIG    1        0.106   0.853  -2.863  0.00  0.00    +0.030 C 
BRANCH   7   9
ATOM      8  C   LIG    1       -0.702   3.152  -2.313  0.00  0.00    +0.030 C 
ATOM      9  C   LIG    1       -0.770   1.676  -1.917  0.00  0.00    +0.020 C 
ENDBRANCH   7   9
ENDBRANCH   6   7
ENDBRANCH   3   6
ENDBRANCH   1   3
BRANCH   1  10
ATOM     10  C   LIG    1        1.589  -3.670  -4.012  0.00  0.00    +0.060 C 
BRANCH  10  11
ATOM     11  C   LIG    1        0.898  -3.584  -5.375  0.00  0.00    +0.050 C 
BRANCH  11  12
ATOM     12  C   LIG    1        1.661  -4.410  -6.378  0.00  0.00    -0.090 C 
ATOM     13  C   LIG    1        1.064  -5.390  -7.010  0.00  0.00    -0.100 C 
ATOM     14  C   LIG    1        1.786  -6.130  -8.107  0.00  0.00    +0.080 C 
ATOM     15  C   LIG    1       -0.344  -5.778  -6.639  0.00  0.00    +0.080 C 
ENDBRANCH  11  12
ENDBRANCH  10  11
ENDBRANCH   1  10
TORSDOF 7
ENDMDL
MODEL      112
REMARK  Name = ZINC000004578797
REMARK                            x       y       z     vdW  Elec       q    Type
REMARK                         _______ _______ _______ _____ _____    ______ ____
ROOT
ATOM      1  C   LIG    1        1.039  -5.149  -3.014  0.00  0.00    +0.170 C 
ATOM      2  C   LIG    1       -0.237  -5.854  -3.479  0.00  0.00    +0.090 C 
ENDROOT
BRANCH   1   3
ATOM      3  N   LIG    1        0.740  -3.743  -2.711  0.00  0.00    -0.510 N 
ATOM      4  H   LIG    1        1.595  -3.259  -2.483  0.00  0.00    +0.430 HD
ATOM      5  H   LIG    1        0.311  -3.310  -3.514  0.00  0.00    +0.430 HD
BRANCH   3   6
ATOM      6  C   LIG    1       -0.181  -3.674  -1.568  0.00  0.00    +0.250 C 
BRANCH   6   7
ATOM      7  C   LIG    1       -0.493  -2.210  -1.252  0.00  0.00    +0.030 C 
BRANCH   7   9
ATOM      8  C   LIG    1       -1.763  -0.674   0.254  0.00  0.00    +0.030 C 
ATOM      9  C   LIG    1       -1.451  -2.138  -0.061  0.00  0.00    +0.020 C 
ENDBRANCH   7   9
ENDBRANCH   6   7
ENDBRANCH   3   6
ENDBRANCH   1   3
BRANCH   1  10
ATOM     10  C   LIG    1        2.092  -5.219  -4.121  0.00  0.00    +0.060 C 
BRANCH  10  11
ATOM     11  C   LIG    1        3.408  -4.626  -3.612  0.00  0.00    +0.050 C 
BRANCH  11  12
ATOM     12  C   LIG    1        4.445  -4.694  -4.703  0.00  0.00    -0.090 C 
ATOM     13  C   LIG    1        5.602  -5.263  -4.472  0.00  0.00    -0.100 C 
ATOM     14  C   LIG    1        6.585  -5.458  -5.598  0.00  0.00    +0.080 C 
ATOM     15  C   LIG    1        5.950  -5.724  -3.080  0.00  0.00    +0.070 C 
ENDBRANCH  11  12
ENDBRANCH  10  11
ENDBRANCH   1  10
TORSDOF 7
ENDMDL
MODEL      113
REMARK  Name = ZINC000004782889
REMARK                            x       y       z     vdW  Elec       q    Type
REMARK                         _______ _______ _______ _____ _____    ______ ____
ROOT
ATOM      1  C   LIG    1        0.582  -0.479  -1.261  0.00  0.00    +0.170 C 
ATOM      2  C   LIG    1        2.079  -0.163  -1.286  0.00  0.00    +0.050 C 
ATOM      3  C   LIG    1        2.441   0.687  -0.067  0.00  0.00    -0.010 C 
ATOM      4  C   LIG    1        3.597   0.030   0.689  0.00  0.00    +0.030 C 
ATOM      5  C   LIG    1        3.211  -0.145   2.159  0.00  0.00    +0.000 C 
ATOM      6  C   LIG    1        3.414  -1.605   2.570  0.00  0.00    +0.010 C 
ATOM      7  C   LIG    1        2.123  -2.143   3.191  0.00  0.00    +0.010 C 
ATOM      8  C   LIG    1        1.712  -3.432   2.476  0.00  0.00    +0.010 C 
ATOM      9  C   LIG    1        0.265  -3.310   1.996  0.00  0.00    -0.010 C 
ATOM     10  C   LIG    1        0.194  -3.625   0.501  0.00  0.00    +0.030 C 
ATOM     11  C   LIG    1       -0.506  -2.478  -0.230  0.00  0.00    -0.000 C 
ATOM     12  C   LIG    1        0.378  -1.991  -1.380  0.00  0.00    +0.050 C 
ENDROOT
BRANCH   1  14
ATOM     13  C   LIG    1       -0.030   1.465   0.005  0.00  0.00    +0.330 C 
ATOM     14  N   LIG    1        0.002  -0.004   0.002  0.00  0.00    -0.520 N 
ATOM     15  H   LIG    1       -0.937  -0.361   0.096  0.00  0.00    +0.430 HD
ATOM     16  H   LIG    1        0.565  -0.330   0.774  0.00  0.00    +0.430 HD
ENDBRANCH   1  14
TORSDOF 1
ENDMDL
