MODEL        1
REMARK  Name = ZINC000019798433
REMARK                            x       y       z     vdW  Elec       q    Type
REMARK                         _______ _______ _______ _____ _____    ______ ____
ROOT
ATOM      1  C   LIG    1       -0.018   1.503   0.010  0.00  0.00    +0.100 C 
ATOM      2  C   LIG    1        0.002  -0.004   0.002  0.00  0.00    -0.030 A 
ATOM      3  C   LIG    1        0.006  -0.689  -1.197  0.00  0.00    +0.000 A 
ATOM      4  C   LIG    1        0.024  -2.072  -1.206  0.00  0.00    -0.040 A 
ATOM      5  C   LIG    1        0.040  -2.774  -0.014  0.00  0.00    -0.010 A 
ATOM      6  C   LIG    1        0.036  -2.096   1.189  0.00  0.00    +0.070 A 
ATOM      7  C   LIG    1        0.023  -0.706   1.201  0.00  0.00    -0.120 A 
ENDROOT
BRANCH   4   8
ATOM      8  C   LIG    1        0.027  -2.815  -2.516  0.00  0.00    -0.030 C 
ATOM      9  C   LIG    1       -1.231  -2.456  -3.310  0.00  0.00    +0.040 C 
ATOM     10  C   LIG    1        0.049  -4.322  -2.248  0.00  0.00    +0.030 C 
ATOM     11  C   LIG    1        1.268  -2.423  -3.322  0.00  0.00    +0.040 C 
ENDBRANCH   4   8
BRANCH   7  12
ATOM     12  S   LIG    1        0.019   0.163   2.734  0.00  0.00    -0.130 S 
ATOM     13  H   LIG    1        1.329   0.325   2.993  0.00  0.00    +0.080 HD
ENDBRANCH   7  12
TORSDOF 2
ENDMDL
MODEL        2
REMARK  Name = ZINC000019991255
REMARK                            x       y       z     vdW  Elec       q    Type
REMARK                         _______ _______ _______ _____ _____    ______ ____
ROOT
ATOM      1  C   LIG    1       -0.018   1.503   0.010  0.00  0.00    +0.100 C 
ATOM      2  C   LIG    1        0.002  -0.004   0.002  0.00  0.00    -0.040 A 
ATOM      3  C   LIG    1        0.006  -0.689  -1.197  0.00  0.00    +0.000 A 
ATOM      4  C   LIG    1        0.024  -2.072  -1.206  0.00  0.00    +0.040 A 
ATOM      5  C   LIG    1        0.039  -2.774  -0.014  0.00  0.00    -0.080 A 
ATOM      6  C   LIG    1        0.035  -2.096   1.189  0.00  0.00    +0.070 A 
ATOM      7  C   LIG    1        0.023  -0.706   1.201  0.00  0.00    -0.110 A 
ENDROOT
BRANCH   5   8
ATOM      8  C   LIG    1        0.059  -4.281  -0.029  0.00  0.00    -0.030 C 
ATOM      9  C   LIG    1       -1.181  -4.814   0.693  0.00  0.00    +0.040 C 
ATOM     10  C   LIG    1        1.318  -4.781   0.682  0.00  0.00    +0.040 C 
ATOM     11  C   LIG    1        0.059  -4.777  -1.476  0.00  0.00    +0.030 C 
ENDBRANCH   5   8
BRANCH   7  12
ATOM     12  S   LIG    1        0.019   0.163   2.734  0.00  0.00    -0.130 S 
ATOM     13  H   LIG    1        1.329   0.324   2.994  0.00  0.00    +0.080 HD
ENDBRANCH   7  12
TORSDOF 2
ENDMDL
MODEL        3
REMARK  Name = ZINC000020268022
REMARK                            x       y       z     vdW  Elec       q    Type
REMARK                         _______ _______ _______ _____ _____    ______ ____
ROOT
ATOM      1  C   LIG    1       -0.018   1.503   0.010  0.00  0.00    +0.080 C 
ATOM      2  C   LIG    1        0.002  -0.004   0.002  0.00  0.00    -0.050 A 
ATOM      3  C   LIG    1        0.006  -0.687  -1.200  0.00  0.00    -0.100 A 
ATOM      4  C   LIG    1        0.025  -2.068  -1.212  0.00  0.00    -0.040 A 
ATOM      5  C   LIG    1        0.041  -2.771  -0.013  0.00  0.00    -0.120 A 
ATOM      6  C   LIG    1        0.037  -2.081   1.193  0.00  0.00    -0.040 A 
ATOM      7  C   LIG    1        0.054  -2.839   2.496  0.00  0.00    +0.100 C 
ATOM      8  C   LIG    1        0.029  -2.812  -2.523  0.00  0.00    +0.100 C 
ATOM      9  C   LIG    1       -0.011   0.076  -2.500  0.00  0.00    +0.090 C 
ATOM     10  C   LIG    1        0.023  -0.700   1.197  0.00  0.00    -0.100 A 
ATOM     11  C   LIG    1        0.019   0.049   2.505  0.00  0.00    +0.090 C 
ENDROOT
BRANCH   5  12
ATOM     12  S   LIG    1        0.066  -4.533  -0.023  0.00  0.00    -0.130 S 
ATOM     13  H   LIG    1        1.380  -4.817  -0.031  0.00  0.00    +0.070 HD
ENDBRANCH   5  12
TORSDOF 1
ENDMDL
MODEL        4
REMARK  Name = ZINC000019336440
REMARK                            x       y       z     vdW  Elec       q    Type
REMARK                         _______ _______ _______ _____ _____    ______ ____
ROOT
ATOM      1  C   LIG    1       -0.018   1.503   0.010  0.00  0.00    +0.090 C 
ATOM      2  C   LIG    1        0.002  -0.004   0.002  0.00  0.00    -0.090 A 
ATOM      3  C   LIG    1        0.006  -0.688  -1.200  0.00  0.00    +0.040 A 
ATOM      4  C   LIG    1        0.025  -2.071  -1.212  0.00  0.00    -0.080 A 
ATOM      5  C   LIG    1        0.041  -2.774  -0.024  0.00  0.00    +0.060 A 
ATOM      6  C   LIG    1        0.037  -2.090   1.186  0.00  0.00    -0.110 A 
ATOM      7  C   LIG    1        0.023  -0.700   1.195  0.00  0.00    -0.040 A 
ATOM      8  C   LIG    1        0.019   0.046   2.504  0.00  0.00    +0.100 C 
ENDROOT
BRANCH   4   9
ATOM      9  C   LIG    1        0.029  -2.812  -2.525  0.00  0.00    -0.030 C 
ATOM     10  C   LIG    1       -1.228  -2.452  -3.318  0.00  0.00    +0.040 C 
ATOM     11  C   LIG    1        0.052  -4.319  -2.260  0.00  0.00    +0.030 C 
ATOM     12  C   LIG    1        1.270  -2.417  -3.329  0.00  0.00    +0.040 C 
ENDBRANCH   4   9
BRANCH   6  13
ATOM     13  S   LIG    1        0.057  -2.982   2.705  0.00  0.00    -0.130 S 
ATOM     14  H   LIG    1        1.370  -3.117   2.960  0.00  0.00    +0.080 HD
ENDBRANCH   6  13
TORSDOF 2
ENDMDL
MODEL        5
REMARK  Name = ZINC000098074348
REMARK                            x       y       z     vdW  Elec       q    Type
REMARK                         _______ _______ _______ _____ _____    ______ ____
ROOT
ATOM      1  C   LIG    1        0.005   1.519  -0.018  0.00  0.00    +0.020 C 
ATOM      2  C   LIG    1        0.020  -0.011  -0.015  0.00  0.00    -0.150 C 
ATOM      3  C   LIG    1        0.705  -0.543  -1.290  0.00  0.00    +0.000 C 
ATOM      4  C   LIG    1        1.440  -1.851  -0.952  0.00  0.00    +0.030 C 
ATOM      5  C   LIG    1        2.249  -1.589   0.345  0.00  0.00    -0.170 C 
ATOM      6  C   LIG    1        2.629  -2.906   1.025  0.00  0.00    +0.040 C 
ATOM      7  P   LIG    1        1.049  -0.637   1.375  0.00  0.00    +0.420 P 
ENDROOT
BRANCH   7   8
ATOM      8  C   LIG    1        2.021   0.840   1.820  0.00  0.00    -0.120 C 
ATOM      9  C   LIG    1        1.298   1.645   2.878  0.00  0.00    -0.010 C 
ATOM     10  C   LIG    1        2.090   1.678   3.943  0.00  0.00    -0.010 C 
ATOM     11  C   LIG    1        3.329   0.939   3.688  0.00  0.00    -0.010 C 
ATOM     12  C   LIG    1        3.329   0.434   2.461  0.00  0.00    -0.040 C 
ENDBRANCH   7   8
TORSDOF 1
ENDMDL
MODEL        6
REMARK  Name = ZINC000098074351
REMARK                            x       y       z     vdW  Elec       q    Type
REMARK                         _______ _______ _______ _____ _____    ______ ____
ROOT
ATOM      1  C   LIG    1       -0.019   1.526   0.010  0.00  0.00    +0.040 C 
ATOM      2  C   LIG    1        0.002  -0.004   0.002  0.00  0.00    -0.160 C 
ATOM      3  C   LIG    1       -1.435  -0.575   0.116  0.00  0.00    +0.030 C 
ATOM      4  C   LIG    1       -1.298  -2.034   0.587  0.00  0.00    +0.000 C 
ATOM      5  C   LIG    1       -0.321  -2.084   1.778  0.00  0.00    -0.140 C 
ATOM      6  C   LIG    1        0.465  -3.397   1.766  0.00  0.00    +0.020 C 
ATOM      7  P   LIG    1        0.816  -0.656   1.521  0.00  0.00    +0.410 P 
ENDROOT
BRANCH   7   8
ATOM      8  C   LIG    1        2.300  -1.470   0.846  0.00  0.00    -0.090 C 
ATOM      9  C   LIG    1        2.025  -1.993  -0.547  0.00  0.00    -0.060 C 
ATOM     10  C   LIG    1        2.866  -1.370  -1.364  0.00  0.00    -0.020 C 
ATOM     11  C   LIG    1        3.716  -0.438  -0.618  0.00  0.00    -0.020 C 
ATOM     12  C   LIG    1        3.418  -0.466   0.675  0.00  0.00    +0.010 C 
ENDBRANCH   7   8
TORSDOF 1
ENDMDL
MODEL        7
REMARK  Name = ZINC000113601327
REMARK                            x       y       z     vdW  Elec       q    Type
REMARK                         _______ _______ _______ _____ _____    ______ ____
ROOT
ATOM      1  C   LIG    1       -0.018   1.503   0.010  0.00  0.00    +0.100 C 
ATOM      2  C   LIG    1        0.002  -0.004   0.002  0.00  0.00    -0.050 A 
ATOM      3  C   LIG    1        0.006  -0.687  -1.200  0.00  0.00    -0.010 A 
ATOM      4  C   LIG    1        0.025  -2.068  -1.212  0.00  0.00    +0.070 A 
ATOM      5  C   LIG    1        0.040  -2.771  -0.013  0.00  0.00    -0.120 A 
ATOM      6  C   LIG    1        0.037  -2.081   1.193  0.00  0.00    -0.020 A 
ATOM      7  C   LIG    1        0.023  -0.700   1.197  0.00  0.00    +0.000 A 
ENDROOT
BRANCH   6   8
ATOM      8  C   LIG    1        0.054  -2.839   2.496  0.00  0.00    -0.030 C 
ATOM      9  C   LIG    1        1.315  -3.701   2.568  0.00  0.00    +0.020 C 
ATOM     10  C   LIG    1       -1.183  -3.736   2.580  0.00  0.00    +0.050 C 
ATOM     11  C   LIG    1        0.046  -1.848   3.662  0.00  0.00    +0.030 C 
ENDBRANCH   6   8
BRANCH   5  12
ATOM     12  S   LIG    1        0.065  -4.533  -0.023  0.00  0.00    -0.120 S 
ATOM     13  H   LIG    1        1.379  -4.817  -0.031  0.00  0.00    +0.070 HD
ENDBRANCH   5  12
TORSDOF 2
ENDMDL
