MODEL        1
REMARK  Name = ZINC000004269988
REMARK                            x       y       z     vdW  Elec       q    Type
REMARK                         _______ _______ _______ _____ _____    ______ ____
ROOT
ATOM      1  S   LIG    1        0.002  -0.004   0.002  0.00  0.00    -0.940 S 
ATOM      2  C   LIG    1       -0.022   1.758   0.012  0.00  0.00    +0.140 A 
ATOM      3  C   LIG    1       -1.236   2.436   0.033  0.00  0.00    -0.040 A 
ATOM      4  C   LIG    1       -1.257   3.814   0.040  0.00  0.00    +0.030 A 
ATOM      5  C   LIG    1       -0.059   4.528   0.027  0.00  0.00    -0.130 A 
ATOM      6  C   LIG    1        1.157   3.847   0.006  0.00  0.00    +0.030 A 
ATOM      7  C   LIG    1        1.174   2.469   0.004  0.00  0.00    -0.040 A 
ENDROOT
BRANCH   5   8
ATOM      8  C   LIG    1       -0.080   6.011   0.036  0.00  0.00    +0.000 A 
ATOM      9  C   LIG    1       -1.294   6.694   0.063  0.00  0.00    -0.010 A 
ATOM     10  C   LIG    1       -1.307   8.074   0.071  0.00  0.00    +0.000 A 
ATOM     11  C   LIG    1       -0.117   8.780   0.052  0.00  0.00    -0.040 A 
ATOM     12  C   LIG    1        1.091   8.107   0.024  0.00  0.00    +0.000 A 
ATOM     13  C   LIG    1        1.116   6.727   0.022  0.00  0.00    -0.010 A 
ENDBRANCH   5   8
TORSDOF 1
ENDMDL
MODEL        2
REMARK  Name = ZINC000146734569
REMARK                            x       y       z     vdW  Elec       q    Type
REMARK                         _______ _______ _______ _____ _____    ______ ____
ROOT
ATOM      1  C   LIG    1       -0.018   1.503   0.010  0.00  0.00    +0.100 C 
ATOM      2  C   LIG    1        0.002  -0.004   0.002  0.00  0.00    -0.140 A 
ATOM      3  C   LIG    1        0.006  -0.688  -1.201  0.00  0.00    +0.000 A 
ATOM      4  C   LIG    1        0.025  -2.070  -1.212  0.00  0.00    +0.000 A 
ATOM      5  C   LIG    1        0.041  -2.773  -0.013  0.00  0.00    +0.150 A 
ATOM      6  C   LIG    1        0.037  -2.083   1.193  0.00  0.00    +0.000 A 
ATOM      7  S   LIG    1        0.066  -4.534  -0.023  0.00  0.00    -0.910 S 
ATOM      8 CL   LIG    1       -0.013   0.191  -2.698  0.00  0.00    -0.090 Cl
ATOM      9  C   LIG    1        0.023  -0.701   1.198  0.00  0.00    +0.000 A 
ATOM     10 CL   LIG    1        0.019   0.161   2.704  0.00  0.00    -0.090 Cl
ENDROOT
TORSDOF 0
ENDMDL
MODEL        3
REMARK  Name = ZINC000019798433
REMARK                            x       y       z     vdW  Elec       q    Type
REMARK                         _______ _______ _______ _____ _____    ______ ____
ROOT
ATOM      1  C   LIG    1       -0.018   1.503   0.010  0.00  0.00    +0.070 C 
ATOM      2  C   LIG    1        0.002  -0.004   0.002  0.00  0.00    -0.120 A 
ATOM      3  C   LIG    1        0.006  -0.689  -1.197  0.00  0.00    +0.000 A 
ATOM      4  C   LIG    1        0.024  -2.072  -1.206  0.00  0.00    -0.130 A 
ATOM      5  C   LIG    1        0.040  -2.774  -0.014  0.00  0.00    +0.000 A 
ATOM      6  C   LIG    1        0.036  -2.096   1.189  0.00  0.00    -0.040 A 
ATOM      7  C   LIG    1        0.023  -0.706   1.201  0.00  0.00    +0.130 A 
ATOM      8  S   LIG    1        0.019   0.163   2.734  0.00  0.00    -0.950 S 
ENDROOT
BRANCH   4   9
ATOM      9  C   LIG    1        0.027  -2.815  -2.516  0.00  0.00    -0.020 C 
ATOM     10  C   LIG    1       -1.231  -2.456  -3.310  0.00  0.00    +0.020 C 
ATOM     11  C   LIG    1        0.049  -4.322  -2.248  0.00  0.00    +0.030 C 
ATOM     12  C   LIG    1        1.268  -2.423  -3.322  0.00  0.00    +0.020 C 
ENDBRANCH   4   9
TORSDOF 1
ENDMDL
MODEL        4
REMARK  Name = ZINC000019991255
REMARK                            x       y       z     vdW  Elec       q    Type
REMARK                         _______ _______ _______ _____ _____    ______ ____
ROOT
ATOM      1  C   LIG    1       -0.018   1.503   0.010  0.00  0.00    +0.080 C 
ATOM      2  C   LIG    1        0.002  -0.004   0.002  0.00  0.00    -0.130 A 
ATOM      3  C   LIG    1        0.006  -0.689  -1.197  0.00  0.00    -0.010 A 
ATOM      4  C   LIG    1        0.024  -2.072  -1.206  0.00  0.00    -0.070 A 
ATOM      5  C   LIG    1        0.039  -2.774  -0.014  0.00  0.00    -0.070 A 
ATOM      6  C   LIG    1        0.035  -2.096   1.189  0.00  0.00    -0.040 A 
ATOM      7  C   LIG    1        0.023  -0.706   1.201  0.00  0.00    +0.130 A 
ATOM      8  S   LIG    1        0.019   0.163   2.734  0.00  0.00    -0.950 S 
ENDROOT
BRANCH   5   9
ATOM      9  C   LIG    1        0.059  -4.281  -0.029  0.00  0.00    -0.030 C 
ATOM     10  C   LIG    1       -1.187  -4.800  -0.749  0.00  0.00    +0.020 C 
ATOM     11  C   LIG    1        0.072  -4.804   1.409  0.00  0.00    +0.030 C 
ATOM     12  C   LIG    1        1.311  -4.767  -0.761  0.00  0.00    +0.020 C 
ENDBRANCH   5   9
TORSDOF 1
ENDMDL
MODEL        5
REMARK  Name = ZINC000020268022
REMARK                            x       y       z     vdW  Elec       q    Type
REMARK                         _______ _______ _______ _____ _____    ______ ____
ROOT
ATOM      1  C   LIG    1       -0.018   1.503   0.010  0.00  0.00    +0.070 C 
ATOM      2  C   LIG    1        0.002  -0.004   0.002  0.00  0.00    -0.150 A 
ATOM      3  C   LIG    1        0.006  -0.687  -1.200  0.00  0.00    -0.080 A 
ATOM      4  C   LIG    1        0.025  -2.068  -1.212  0.00  0.00    -0.120 A 
ATOM      5  C   LIG    1        0.041  -2.771  -0.013  0.00  0.00    +0.130 A 
ATOM      6  C   LIG    1        0.037  -2.081   1.193  0.00  0.00    -0.120 A 
ATOM      7  C   LIG    1        0.054  -2.839   2.496  0.00  0.00    +0.070 C 
ATOM      8  S   LIG    1        0.066  -4.533  -0.023  0.00  0.00    -0.940 S 
ATOM      9  C   LIG    1        0.029  -2.812  -2.523  0.00  0.00    +0.070 C 
ATOM     10  C   LIG    1       -0.011   0.076  -2.500  0.00  0.00    +0.070 C 
ATOM     11  C   LIG    1        0.023  -0.700   1.197  0.00  0.00    -0.080 A 
ATOM     12  C   LIG    1        0.019   0.049   2.505  0.00  0.00    +0.070 C 
ENDROOT
TORSDOF 0
ENDMDL
MODEL        6
REMARK  Name = ZINC000082048874
REMARK                            x       y       z     vdW  Elec       q    Type
REMARK                         _______ _______ _______ _____ _____    ______ ____
ROOT
ATOM      1  S   LIG    1        0.002  -0.004   0.002  0.00  0.00    -0.930 S 
ATOM      2  C   LIG    1       -0.022   1.758   0.012  0.00  0.00    +0.140 A 
ATOM      3  C   LIG    1       -1.248   2.434   0.033  0.00  0.00    +0.010 A 
ATOM      4  C   LIG    1       -1.296   3.793   0.041  0.00  0.00    +0.010 A 
ATOM      5  C   LIG    1       -0.103   4.536   0.029  0.00  0.00    -0.090 A 
ATOM      6  C   LIG    1       -0.123   5.941   0.037  0.00  0.00    +0.050 A 
ATOM      7  C   LIG    1        1.051   6.633   0.025  0.00  0.00    -0.060 A 
ATOM      8  C   LIG    1        2.276   5.967   0.004  0.00  0.00    +0.000 A 
ATOM      9  C   LIG    1        2.334   4.608  -0.005  0.00  0.00    +0.030 A 
ATOM     10 CL   LIG    1        1.021   8.369   0.036  0.00  0.00    -0.100 Cl
ATOM     11  C   LIG    1        1.143   3.860   0.007  0.00  0.00    -0.020 A 
ATOM     12  C   LIG    1        1.167   2.456   0.004  0.00  0.00    -0.050 A 
ENDROOT
TORSDOF 0
ENDMDL
MODEL        7
REMARK  Name = ZINC000019336440
REMARK                            x       y       z     vdW  Elec       q    Type
REMARK                         _______ _______ _______ _____ _____    ______ ____
ROOT
ATOM      1  C   LIG    1       -0.018   1.503   0.010  0.00  0.00    +0.060 C 
ATOM      2  C   LIG    1        0.002  -0.004   0.002  0.00  0.00    -0.080 A 
ATOM      3  C   LIG    1        0.006  -0.688  -1.200  0.00  0.00    -0.070 A 
ATOM      4  C   LIG    1        0.025  -2.071  -1.212  0.00  0.00    -0.070 A 
ATOM      5  C   LIG    1        0.041  -2.774  -0.024  0.00  0.00    -0.040 A 
ATOM      6  C   LIG    1        0.037  -2.090   1.186  0.00  0.00    +0.140 A 
ATOM      7  S   LIG    1        0.057  -2.982   2.705  0.00  0.00    -0.950 S 
ATOM      8  C   LIG    1        0.023  -0.700   1.195  0.00  0.00    -0.120 A 
ATOM      9  C   LIG    1        0.019   0.046   2.504  0.00  0.00    +0.070 C 
ENDROOT
BRANCH   4  10
ATOM     10  C   LIG    1        0.029  -2.812  -2.525  0.00  0.00    -0.020 C 
ATOM     11  C   LIG    1       -1.228  -2.452  -3.318  0.00  0.00    +0.020 C 
ATOM     12  C   LIG    1        0.052  -4.319  -2.260  0.00  0.00    +0.030 C 
ATOM     13  C   LIG    1        1.270  -2.417  -3.329  0.00  0.00    +0.020 C 
ENDBRANCH   4  10
TORSDOF 1
ENDMDL
MODEL        8
REMARK  Name = ZINC000038761609
REMARK                            x       y       z     vdW  Elec       q    Type
REMARK                         _______ _______ _______ _____ _____    ______ ____
ROOT
ATOM      1  C   LIG    1       -1.412  -0.526   0.013  0.00  0.00    -0.080 A 
ATOM      2  C   LIG    1       -2.258  -0.203   1.058  0.00  0.00    -0.010 A 
ATOM      3  C   LIG    1       -3.556  -0.676   1.077  0.00  0.00    +0.030 A 
ATOM      4  C   LIG    1       -4.014  -1.478   0.043  0.00  0.00    -0.020 A 
ATOM      5  O   LIG    1       -5.205  -2.075  -0.206  0.00  0.00    -0.230 OA
ATOM      6  C   LIG    1       -5.126  -2.752  -1.363  0.00  0.00    +0.400 A 
ATOM      7  N   LIG    1       -3.891  -2.609  -1.883  0.00  0.00    -0.550 NA
ATOM      8  S   LIG    1       -6.397  -3.656  -2.069  0.00  0.00    -0.700 S 
ATOM      9  C   LIG    1       -3.160  -1.803  -1.011  0.00  0.00    +0.050 A 
ATOM     10  C   LIG    1       -1.861  -1.320  -1.025  0.00  0.00    +0.030 A 
ENDROOT
BRANCH   1  12
ATOM     11  C   LIG    1       -0.019   1.526   0.010  0.00  0.00    +0.030 C 
ATOM     12  C   LIG    1        0.002  -0.004   0.002  0.00  0.00    +0.030 C 
ATOM     13  C   LIG    1        0.742  -0.511   1.242  0.00  0.00    +0.030 C 
ENDBRANCH   1  12
TORSDOF 1
ENDMDL
MODEL        9
REMARK  Name = ZINC000004786787
REMARK                            x       y       z     vdW  Elec       q    Type
REMARK                         _______ _______ _______ _____ _____    ______ ____
ROOT
ATOM      1  C   LIG    1       -1.295   1.936   0.019  0.00  0.00    -0.170 C 
ATOM      2  C   LIG    1       -2.438   1.257  -0.075  0.00  0.00    -0.060 C 
ATOM      3  C   LIG    1       -2.415  -0.245  -0.188  0.00  0.00    +0.050 C 
ATOM      4  C   LIG    1       -2.343  -0.644  -1.663  0.00  0.00    +0.020 C 
ATOM      5  C   LIG    1       -3.144   0.354  -2.501  0.00  0.00    -0.020 C 
ATOM      6  C   LIG    1       -2.386   0.658  -3.795  0.00  0.00    +0.000 C 
ATOM      7  C   LIG    1       -2.654   2.105  -4.214  0.00  0.00    -0.010 C 
ATOM      8  C   LIG    1       -1.683   3.035  -3.485  0.00  0.00    +0.000 C 
ATOM      9  C   LIG    1       -2.303   3.482  -2.160  0.00  0.00    -0.000 C 
ATOM     10  C   LIG    1       -1.211   4.061  -1.257  0.00  0.00    +0.010 C 
ATOM     11  C   LIG    1       -1.317   3.438   0.141  0.00  0.00    +0.050 C 
ENDROOT
BRANCH   1  13
ATOM     12  O   LIG    1        0.012   0.017  -0.214  0.00  0.00    -0.680 OA
ATOM     13  C   LIG    1       -0.015   1.220   0.009  0.00  0.00    +0.520 C 
ATOM     14  O   LIG    1        1.028   1.826   0.218  0.00  0.00    -0.700 OA
ENDBRANCH   1  13
TORSDOF 1
ENDMDL
MODEL       10
REMARK  Name = ZINC000000394615
REMARK                            x       y       z     vdW  Elec       q    Type
REMARK                         _______ _______ _______ _____ _____    ______ ____
ROOT
ATOM      1  C   LIG    1       -1.329   1.950   0.019  0.00  0.00    -0.110 C 
ATOM      2  C   LIG    1       -2.393   1.092   0.703  0.00  0.00    +0.020 C 
ATOM      3  C   LIG    1       -3.775   1.713   0.492  0.00  0.00    -0.010 C 
ATOM      4  C   LIG    1       -4.745   1.151   1.533  0.00  0.00    -0.010 C 
ATOM      5  C   LIG    1       -5.187   2.270   2.476  0.00  0.00    -0.010 C 
ATOM      6  C   LIG    1       -4.169   2.422   3.607  0.00  0.00    +0.000 C 
ATOM      7  C   LIG    1       -3.486   3.787   3.503  0.00  0.00    +0.000 C 
ATOM      8  C   LIG    1       -2.070   3.699   4.076  0.00  0.00    -0.010 C 
ATOM      9  C   LIG    1       -1.067   4.228   3.050  0.00  0.00    -0.010 C 
ATOM     10  C   LIG    1       -0.607   3.080   2.146  0.00  0.00    +0.020 C 
ATOM     11  C   LIG    1       -1.175   3.286   0.743  0.00  0.00    +0.010 C 
ENDROOT
BRANCH   1  13
ATOM     12  O   LIG    1        0.002  -0.004   0.002  0.00  0.00    -0.700 OA
ATOM     13  C   LIG    1       -0.015   1.215   0.009  0.00  0.00    +0.500 C 
ATOM     14  O   LIG    1        1.033   1.839   0.002  0.00  0.00    -0.700 OA
ENDBRANCH   1  13
TORSDOF 1
ENDMDL
MODEL       11
REMARK  Name = ZINC000001577187
REMARK                            x       y       z     vdW  Elec       q    Type
REMARK                         _______ _______ _______ _____ _____    ______ ____
ROOT
ATOM      1  C   LIG    1       -4.963   0.678   0.029  0.00  0.00    +0.000 C 
ENDROOT
BRANCH   1   2
ATOM      2  C   LIG    1       -3.814   1.688   0.029  0.00  0.00    -0.020 C 
BRANCH   2   3
ATOM      3  C   LIG    1       -2.479   0.941   0.019  0.00  0.00    +0.030 C 
BRANCH   3   4
ATOM      4  C   LIG    1       -1.330   1.951   0.019  0.00  0.00    -0.080 C 
BRANCH   4   6
ATOM      5  O   LIG    1        0.002  -0.004   0.002  0.00  0.00    -0.700 OA
ATOM      6  C   LIG    1       -0.015   1.215   0.009  0.00  0.00    +0.490 C 
ATOM      7  O   LIG    1        1.033   1.839   0.002  0.00  0.00    -0.710 OA
ENDBRANCH   4   6
ENDBRANCH   3   4
ENDBRANCH   2   3
ENDBRANCH   1   2
BRANCH   1   8
ATOM      8  C   LIG    1       -6.299   1.425   0.040  0.00  0.00    +0.010 C 
BRANCH   8   9
ATOM      9  C   LIG    1       -7.448   0.415   0.040  0.00  0.00    -0.020 C 
ATOM     10  C   LIG    1       -7.423  -0.387   1.343  0.00  0.00    +0.010 C 
ATOM     11  C   LIG    1       -8.572  -1.397   1.343  0.00  0.00    +0.000 C 
ATOM     12  C   LIG    1       -9.904  -0.653   1.227  0.00  0.00    +0.000 C 
ATOM     13  C   LIG    1       -9.930   0.148  -0.076  0.00  0.00    +0.000 C 
ATOM     14  C   LIG    1       -8.780   1.158  -0.076  0.00  0.00    +0.010 C 
ENDBRANCH   8   9
ENDBRANCH   1   8
TORSDOF 6
ENDMDL
MODEL       12
REMARK  Name = ZINC000263623791
REMARK                            x       y       z     vdW  Elec       q    Type
REMARK                         _______ _______ _______ _____ _____    ______ ____
ROOT
ATOM      1  C   LIG    1       -0.018   1.503   0.010  0.00  0.00    +0.090 C 
ATOM      2  C   LIG    1        0.002  -0.004   0.002  0.00  0.00    -0.050 A 
ATOM      3  C   LIG    1        0.006  -0.688  -1.200  0.00  0.00    -0.050 A 
ATOM      4  C   LIG    1        0.025  -2.072  -1.212  0.00  0.00    -0.010 A 
ATOM      5  C   LIG    1        0.040  -2.775  -0.022  0.00  0.00    -0.010 A 
ATOM      6  C   LIG    1        0.036  -2.091   1.187  0.00  0.00    +0.140 A 
ATOM      7  S   LIG    1        0.055  -2.983   2.706  0.00  0.00    -0.890 S 
ATOM      8 CL   LIG    1        0.029  -2.926  -2.724  0.00  0.00    -0.100 Cl
ATOM      9  C   LIG    1        0.023  -0.701   1.195  0.00  0.00    -0.070 A 
ATOM     10 CL   LIG    1        0.019   0.159   2.704  0.00  0.00    -0.070 Cl
ENDROOT
TORSDOF 0
ENDMDL
MODEL       13
REMARK  Name = ZINC000231270519
REMARK                            x       y       z     vdW  Elec       q    Type
REMARK                         _______ _______ _______ _____ _____    ______ ____
ROOT
ATOM      1  C   LIG    1       -0.018   1.503   0.010  0.00  0.00    +0.100 C 
ATOM      2  C   LIG    1        0.002  -0.004   0.002  0.00  0.00    -0.100 A 
ATOM      3  C   LIG    1        0.006  -0.693  -1.205  0.00  0.00    +0.140 A 
ATOM      4  C   LIG    1        0.025  -2.083  -1.208  0.00  0.00    +0.000 A 
ATOM      5  C   LIG    1        0.041  -2.775  -0.013  0.00  0.00    -0.010 A 
ATOM      6  C   LIG    1        0.037  -2.086   1.188  0.00  0.00    -0.040 A 
ATOM      7 CL   LIG    1        0.065  -4.511  -0.016  0.00  0.00    -0.090 Cl
ATOM      8  S   LIG    1       -0.013   0.194  -2.727  0.00  0.00    -0.900 S 
ATOM      9  C   LIG    1        0.023  -0.702   1.195  0.00  0.00    +0.000 A 
ATOM     10 CL   LIG    1        0.019   0.158   2.703  0.00  0.00    -0.090 Cl
ENDROOT
TORSDOF 0
ENDMDL
MODEL       14
REMARK  Name = ZINC000012153157
REMARK                            x       y       z     vdW  Elec       q    Type
REMARK                         _______ _______ _______ _____ _____    ______ ____
ROOT
ATOM      1  C   LIG    1       -4.963   0.678   0.029  0.00  0.00    +0.000 C 
ENDROOT
BRANCH   1   2
ATOM      2  C   LIG    1       -3.814   1.688   0.029  0.00  0.00    -0.020 C 
BRANCH   2   3
ATOM      3  C   LIG    1       -2.479   0.941   0.019  0.00  0.00    +0.030 C 
BRANCH   3   4
ATOM      4  C   LIG    1       -1.330   1.951   0.019  0.00  0.00    -0.080 C 
BRANCH   4   6
ATOM      5  O   LIG    1        0.002  -0.004   0.002  0.00  0.00    -0.700 OA
ATOM      6  C   LIG    1       -0.015   1.215   0.009  0.00  0.00    +0.490 C 
ATOM      7  O   LIG    1        1.033   1.839   0.002  0.00  0.00    -0.710 OA
ENDBRANCH   4   6
ENDBRANCH   3   4
ENDBRANCH   2   3
ENDBRANCH   1   2
BRANCH   1   8
ATOM      8  C   LIG    1       -6.299   1.425   0.040  0.00  0.00    +0.000 C 
BRANCH   8   9
ATOM      9  C   LIG    1       -7.448   0.415   0.040  0.00  0.00    +0.000 C 
BRANCH   9  10
ATOM     10  C   LIG    1       -8.783   1.162   0.050  0.00  0.00    +0.000 C 
BRANCH  10  11
ATOM     11  C   LIG    1       -9.933   0.152   0.050  0.00  0.00    +0.030 C 
BRANCH  11  12
ATOM     12  C   LIG    1      -11.268   0.899   0.060  0.00  0.00    -0.050 C 
ATOM     13  C   LIG    1      -12.185   0.724  -1.152  0.00  0.00    +0.000 C 
ATOM     14  C   LIG    1      -12.544   0.063   0.180  0.00  0.00    +0.000 C 
ENDBRANCH  11  12
ENDBRANCH  10  11
ENDBRANCH   9  10
ENDBRANCH   8   9
ENDBRANCH   1   8
TORSDOF 9
ENDMDL
MODEL       15
REMARK  Name = ZINC000238497738
REMARK                            x       y       z     vdW  Elec       q    Type
REMARK                         _______ _______ _______ _____ _____    ______ ____
ROOT
ATOM      1  C   LIG    1       -0.018   1.503   0.010  0.00  0.00    +0.100 C 
ATOM      2  C   LIG    1        0.002  -0.004   0.002  0.00  0.00    -0.110 A 
ATOM      3  C   LIG    1        0.006  -0.688  -1.197  0.00  0.00    +0.050 A 
ATOM      4  C   LIG    1        0.025  -2.072  -1.206  0.00  0.00    -0.090 A 
ATOM      5  C   LIG    1        0.041  -2.775  -0.013  0.00  0.00    -0.010 A 
ATOM      6  C   LIG    1        0.037  -2.095   1.190  0.00  0.00    +0.000 A 
ATOM      7 CL   LIG    1        0.065  -4.511  -0.029  0.00  0.00    -0.080 Cl
ATOM      8 CL   LIG    1        0.029  -2.929  -2.716  0.00  0.00    -0.090 Cl
ATOM      9  C   LIG    1        0.023  -0.706   1.202  0.00  0.00    +0.140 A 
ATOM     10  S   LIG    1        0.019   0.165   2.733  0.00  0.00    -0.910 S 
ENDROOT
TORSDOF 0
ENDMDL
MODEL       16
REMARK  Name = ZINC000238503643
REMARK                            x       y       z     vdW  Elec       q    Type
REMARK                         _______ _______ _______ _____ _____    ______ ____
ROOT
ATOM      1  C   LIG    1       -0.018   1.503   0.010  0.00  0.00    +0.090 C 
ATOM      2  C   LIG    1        0.002  -0.004   0.002  0.00  0.00    -0.060 A 
ATOM      3  C   LIG    1        0.006  -0.687  -1.198  0.00  0.00    -0.020 A 
ATOM      4  C   LIG    1        0.025  -2.076  -1.206  0.00  0.00    +0.140 A 
ATOM      5  C   LIG    1        0.040  -2.775  -0.004  0.00  0.00    -0.070 A 
ATOM      6  C   LIG    1        0.036  -2.085   1.194  0.00  0.00    +0.000 A 
ATOM      7 CL   LIG    1        0.055  -2.955   2.696  0.00  0.00    -0.080 Cl
ATOM      8 CL   LIG    1        0.064  -4.511  -0.008  0.00  0.00    -0.060 Cl
ATOM      9  S   LIG    1        0.030  -2.951  -2.736  0.00  0.00    -0.890 S 
ATOM     10  C   LIG    1        0.023  -0.701   1.196  0.00  0.00    -0.050 A 
ENDROOT
TORSDOF 0
ENDMDL
MODEL       17
REMARK  Name = ZINC000263625199
REMARK                            x       y       z     vdW  Elec       q    Type
REMARK                         _______ _______ _______ _____ _____    ______ ____
ROOT
ATOM      1  C   LIG    1       -0.018   1.503   0.010  0.00  0.00    +0.090 C 
ATOM      2  C   LIG    1        0.002  -0.004   0.002  0.00  0.00    -0.140 A 
ATOM      3  C   LIG    1        0.006  -0.687  -1.200  0.00  0.00    +0.030 A 
ATOM      4  C   LIG    1        0.025  -2.069  -1.212  0.00  0.00    -0.060 A 
ATOM      5  C   LIG    1        0.041  -2.772  -0.013  0.00  0.00    +0.130 A 
ATOM      6  C   LIG    1        0.037  -2.082   1.194  0.00  0.00    -0.060 A 
ATOM      7 CL   LIG    1        0.056  -2.955   2.694  0.00  0.00    -0.070 Cl
ATOM      8  S   LIG    1        0.066  -4.534  -0.023  0.00  0.00    -0.870 S 
ATOM      9 CL   LIG    1        0.030  -2.925  -2.722  0.00  0.00    -0.070 Cl
ATOM     10  C   LIG    1        0.023  -0.700   1.197  0.00  0.00    +0.030 A 
ENDROOT
TORSDOF 0
ENDMDL
MODEL       18
REMARK  Name = ZINC000263625149
REMARK                            x       y       z     vdW  Elec       q    Type
REMARK                         _______ _______ _______ _____ _____    ______ ____
ROOT
ATOM      1  C   LIG    1       -0.018   1.503   0.010  0.00  0.00    +0.100 C 
ATOM      2  C   LIG    1        0.002  -0.004   0.002  0.00  0.00    -0.050 A 
ATOM      3  C   LIG    1        0.006  -0.687  -1.198  0.00  0.00    -0.010 A 
ATOM      4  C   LIG    1        0.025  -2.077  -1.206  0.00  0.00    +0.150 A 
ATOM      5  C   LIG    1        0.040  -2.775  -0.005  0.00  0.00    -0.010 A 
ATOM      6  C   LIG    1        0.036  -2.086   1.194  0.00  0.00    +0.000 A 
ATOM      7 CL   LIG    1        0.056  -2.958   2.695  0.00  0.00    -0.080 Cl
ATOM      8  S   LIG    1        0.030  -2.951  -2.735  0.00  0.00    -0.920 S 
ATOM      9  C   LIG    1        0.023  -0.702   1.197  0.00  0.00    -0.090 A 
ATOM     10 CL   LIG    1        0.019   0.161   2.704  0.00  0.00    -0.080 Cl
ENDROOT
TORSDOF 0
ENDMDL
MODEL       19
REMARK  Name = ZINC000113601327
REMARK                            x       y       z     vdW  Elec       q    Type
REMARK                         _______ _______ _______ _____ _____    ______ ____
ROOT
ATOM      1  C   LIG    1       -0.018   1.503   0.010  0.00  0.00    +0.060 C 
ATOM      2  C   LIG    1        0.002  -0.004   0.002  0.00  0.00    -0.150 A 
ATOM      3  C   LIG    1        0.006  -0.687  -1.200  0.00  0.00    -0.010 A 
ATOM      4  C   LIG    1        0.025  -2.068  -1.212  0.00  0.00    -0.040 A 
ATOM      5  C   LIG    1        0.040  -2.771  -0.013  0.00  0.00    +0.130 A 
ATOM      6  C   LIG    1        0.037  -2.081   1.193  0.00  0.00    -0.100 A 
ATOM      7  S   LIG    1        0.065  -4.533  -0.023  0.00  0.00    -0.920 S 
ATOM      8  C   LIG    1        0.023  -0.700   1.197  0.00  0.00    +0.000 A 
ENDROOT
BRANCH   6   9
ATOM      9  C   LIG    1        0.054  -2.839   2.496  0.00  0.00    +0.000 C 
ATOM     10  C   LIG    1        1.315  -3.701   2.568  0.00  0.00    +0.020 C 
ATOM     11  C   LIG    1       -1.183  -3.736   2.580  0.00  0.00    +0.020 C 
ATOM     12  C   LIG    1        0.046  -1.848   3.662  0.00  0.00    +0.010 C 
ENDBRANCH   6   9
TORSDOF 1
ENDMDL
