REMARK  Name = ZINC000040571356
REMARK                            x       y       z     vdW  Elec       q    Type
REMARK                         _______ _______ _______ _____ _____    ______ ____
ROOT
ATOM      1  C   LIG    1       -3.549  -0.653  -1.275  0.00  0.00    -0.050 A 
ATOM      2  C   LIG    1       -3.824  -1.910  -1.780  0.00  0.00    +0.000 A 
ATOM      3  C   LIG    1       -5.118  -2.392  -1.772  0.00  0.00    +0.060 A 
ATOM      4  C   LIG    1       -6.145  -1.611  -1.254  0.00  0.00    -0.110 A 
ATOM      5  C   LIG    1       -5.865  -0.348  -0.747  0.00  0.00    +0.060 A 
ATOM      6  C   LIG    1       -4.567   0.125  -0.754  0.00  0.00    +0.000 A 
ENDROOT
BRANCH   4   7
ATOM      7  S   LIG    1       -7.798  -2.221  -1.241  0.00  0.00    -0.130 S 
ATOM      8  H   LIG    1       -7.880  -2.846  -0.053  0.00  0.00    +0.080 HD
ENDBRANCH   4   7
BRANCH   1   9
ATOM      9  C   LIG    1       -2.135  -0.131  -1.286  0.00  0.00    +0.070 C 
BRANCH   9  10
ATOM     10  C   LIG    1       -1.433  -0.534   0.013  0.00  0.00    +0.010 C 
BRANCH  10  12
ATOM     11  C   LIG    1       -0.019   1.526   0.010  0.00  0.00    +0.010 C 
ATOM     12  C   LIG    1        0.002  -0.004   0.002  0.00  0.00    -0.030 C 
ATOM     13  C   LIG    1        0.742  -0.511   1.242  0.00  0.00    +0.010 C 
ENDBRANCH  10  12
ENDBRANCH   9  10
ENDBRANCH   1   9
TORSDOF 4
