MODEL        1
REMARK  Name = ZINC000005554638
REMARK                            x       y       z     vdW  Elec       q    Type
REMARK                         _______ _______ _______ _____ _____    ______ ____
ROOT
ATOM      1  C   LIG    1       -2.848  -2.593   0.015  0.00  0.00    -0.050 C 
ENDROOT
BRANCH   1   2
ATOM      2  C   LIG    1       -3.588  -2.086  -1.224  0.00  0.00    +0.010 C 
ATOM      3  C   LIG    1       -2.872  -2.580  -2.483  0.00  0.00    +0.020 C 
ENDBRANCH   1   2
BRANCH   1   4
ATOM      4  C   LIG    1       -1.413  -2.063   0.004  0.00  0.00    +0.030 C 
BRANCH   4   5
ATOM      5  C   LIG    1       -1.433  -0.534   0.013  0.00  0.00    +0.020 C 
BRANCH   5   7
ATOM      6  C   LIG    1       -0.019   1.526   0.010  0.00  0.00    +0.000 C 
ATOM      7  C   LIG    1        0.002  -0.004   0.002  0.00  0.00    -0.010 C 
ENDBRANCH   5   7
ENDBRANCH   4   5
ENDBRANCH   1   4
BRANCH   1   8
ATOM      8  C   LIG    1       -2.827  -4.123   0.007  0.00  0.00    +0.030 C 
BRANCH   8   9
ATOM      9  C   LIG    1       -4.263  -4.652   0.018  0.00  0.00    +0.260 C 
BRANCH   9  10
ATOM     10  N   LIG    1       -4.243  -6.121   0.010  0.00  0.00    -0.640 N 
ATOM     11  H   LIG    1       -3.755  -6.456   0.827  0.00  0.00    +0.430 HD
ATOM     12  H   LIG    1       -3.770  -6.447  -0.821  0.00  0.00    +0.430 HD
ATOM     13  H   LIG    1       -5.189  -6.471   0.017  0.00  0.00    +0.440 HD
ENDBRANCH   9  10
ENDBRANCH   8   9
ENDBRANCH   1   8
BRANCH   1  14
ATOM     14  C   LIG    1       -3.564  -2.100   1.274  0.00  0.00    +0.020 C 
BRANCH  14  15
ATOM     15  C   LIG    1       -2.824  -2.607   2.514  0.00  0.00    -0.010 C 
ATOM     16  C   LIG    1       -3.540  -2.113   3.772  0.00  0.00    +0.010 C 
ENDBRANCH  14  15
ENDBRANCH   1  14
TORSDOF 9
ENDMDL
MODEL        2
REMARK  Name = ZINC000005553561
REMARK                            x       y       z     vdW  Elec       q    Type
REMARK                         _______ _______ _______ _____ _____    ______ ____
ROOT
ATOM      1  C   LIG    1        1.526  -2.180   2.432  0.00  0.00    -0.020 C 
ENDROOT
BRANCH   1   2
ATOM      2  C   LIG    1        0.440  -1.823   3.448  0.00  0.00    +0.040 C 
ATOM      3  C   LIG    1        0.802  -2.416   4.811  0.00  0.00    +0.020 C 
ENDBRANCH   1   2
BRANCH   1   4
ATOM      4  C   LIG    1        1.241  -1.467   1.108  0.00  0.00    +0.000 C 
BRANCH   4   5
ATOM      5  C   LIG    1        1.355   0.046   1.309  0.00  0.00    +0.020 C 
BRANCH   5   7
ATOM      6  C   LIG    1        1.184   2.272   0.187  0.00  0.00    +0.020 C 
ATOM      7  C   LIG    1        1.070   0.759  -0.014  0.00  0.00    -0.010 C 
ENDBRANCH   5   7
ENDBRANCH   4   5
ENDBRANCH   1   4
BRANCH   1   8
ATOM      8  C   LIG    1        1.535  -3.693   2.204  0.00  0.00    +0.240 C 
BRANCH   8   9
ATOM      9  N   LIG    1        2.632  -4.045   1.292  0.00  0.00    -0.390 N 
ATOM     10  H   LIG    1        2.559  -3.495   0.450  0.00  0.00    +0.420 HD
BRANCH   9  11
ATOM     11  C   LIG    1        2.550  -5.472   0.955  0.00  0.00    +0.240 C 
ATOM     12  C   LIG    1        1.275  -5.733   0.150  0.00  0.00    +0.080 C 
ENDBRANCH   9  11
BRANCH   9  13
ATOM     13  C   LIG    1        3.919  -3.769   1.946  0.00  0.00    +0.240 C 
ATOM     14  C   LIG    1        5.058  -4.017   0.955  0.00  0.00    +0.080 C 
ENDBRANCH   9  13
ENDBRANCH   8   9
ENDBRANCH   1   8
TORSDOF 8
ENDMDL
MODEL        3
REMARK  Name = ZINC000005964187
REMARK                            x       y       z     vdW  Elec       q    Type
REMARK                         _______ _______ _______ _____ _____    ______ ____
ROOT
ATOM      1  C   LIG    1       -0.018   1.503   0.010  0.00  0.00    +0.070 C 
ATOM      2  C   LIG    1        0.002  -0.004   0.002  0.00  0.00    -0.090 C 
ATOM      3  C   LIG    1       -1.133  -0.626   0.004  0.00  0.00    -0.140 C 
ATOM      4  C   LIG    1       -1.272  -2.121   0.007  0.00  0.00    -0.020 C 
ATOM      5  C   LIG    1        0.045  -2.774  -0.417  0.00  0.00    +0.030 C 
ATOM      6  C   LIG    1        1.181  -2.154   0.408  0.00  0.00    +0.020 C 
ATOM      7  C   LIG    1       -2.375  -2.529  -0.973  0.00  0.00    +0.020 C 
ATOM      8  C   LIG    1       -1.644  -2.593   1.414  0.00  0.00    +0.030 C 
ATOM      9  C   LIG    1        1.337  -0.690  -0.014  0.00  0.00    +0.070 C 
ENDROOT
BRANCH   3  10
ATOM     10  C   LIG    1       -2.393   0.201   0.004  0.00  0.00    +0.050 C 
BRANCH  10  11
ATOM     11  C   LIG    1       -2.889   0.373  -1.433  0.00  0.00    +0.060 C 
BRANCH  11  12
ATOM     12  C   LIG    1       -4.168   1.213  -1.433  0.00  0.00    +0.170 C 
ATOM     13  C   LIG    1       -4.596   1.491  -2.875  0.00  0.00    +0.090 C 
BRANCH  12  14
ATOM     14  N   LIG    1       -5.235   0.481  -0.738  0.00  0.00    -0.640 N 
ATOM     15  H   LIG    1       -5.407  -0.393  -1.212  0.00  0.00    +0.430 HD
ATOM     16  H   LIG    1       -6.079   1.035  -0.738  0.00  0.00    +0.440 HD
ATOM     17  H   LIG    1       -4.953   0.298   0.213  0.00  0.00    +0.430 HD
ENDBRANCH  12  14
ENDBRANCH  11  12
ENDBRANCH  10  11
ENDBRANCH   3  10
TORSDOF 4
ENDMDL
MODEL        4
REMARK  Name = ZINC000015442174
REMARK                            x       y       z     vdW  Elec       q    Type
REMARK                         _______ _______ _______ _____ _____    ______ ____
ROOT
ATOM      1  C   LIG    1        1.656  -4.058  -2.461  0.00  0.00    +0.060 C 
ENDROOT
BRANCH   1   2
ATOM      2  C   LIG    1        2.518  -4.540  -3.629  0.00  0.00    +0.170 C 
ATOM      3  C   LIG    1        2.861  -6.019  -3.433  0.00  0.00    +0.060 C 
ATOM      4  C   LIG    1        3.724  -6.497  -4.604  0.00  0.00    +0.030 C 
ATOM      5  C   LIG    1        2.974  -6.245  -5.915  0.00  0.00    +0.050 C 
ATOM      6  C   LIG    1        2.627  -4.758  -6.019  0.00  0.00    +0.250 C 
ATOM      7  N   LIG    1        1.779  -4.369  -4.886  0.00  0.00    -0.510 N 
ATOM      8  H   LIG    1        1.509  -3.402  -4.985  0.00  0.00    +0.430 HD
ATOM      9  H   LIG    1        0.953  -4.949  -4.871  0.00  0.00    +0.430 HD
ENDBRANCH   1   2
BRANCH   1  10
ATOM     10  C   LIG    1        1.390  -2.558  -2.608  0.00  0.00    -0.040 C 
BRANCH  10  11
ATOM     11  C   LIG    1        2.708  -1.791  -2.476  0.00  0.00    +0.010 C 
ATOM     12  C   LIG    1        3.333  -2.084  -1.110  0.00  0.00    +0.030 C 
ENDBRANCH  10  11
BRANCH  10  13
ATOM     13  C   LIG    1        0.422  -2.102  -1.515  0.00  0.00    +0.030 C 
BRANCH  13  14
ATOM     14  C   LIG    1        0.059  -0.632  -1.737  0.00  0.00    +0.010 C 
BRANCH  14  16
ATOM     15  C   LIG    1       -1.273   1.294  -0.865  0.00  0.00    +0.000 C 
ATOM     16  C   LIG    1       -0.909  -0.176  -0.644  0.00  0.00    -0.010 C 
ENDBRANCH  14  16
ENDBRANCH  13  14
ENDBRANCH  10  13
ENDBRANCH   1  10
TORSDOF 6
ENDMDL
MODEL        5
REMARK  Name = ZINC000015442172
REMARK                            x       y       z     vdW  Elec       q    Type
REMARK                         _______ _______ _______ _____ _____    ______ ____
ROOT
ATOM      1  C   LIG    1        1.546  -3.936  -2.565  0.00  0.00    +0.050 C 
ENDROOT
BRANCH   1   2
ATOM      2  C   LIG    1        2.354  -4.408  -3.776  0.00  0.00    +0.160 C 
ATOM      3  C   LIG    1        2.280  -5.934  -3.874  0.00  0.00    +0.060 C 
ATOM      4  C   LIG    1        3.090  -6.401  -5.087  0.00  0.00    +0.030 C 
ATOM      5  C   LIG    1        4.529  -5.897  -4.952  0.00  0.00    +0.050 C 
ATOM      6  C   LIG    1        4.520  -4.373  -4.813  0.00  0.00    +0.250 C 
ATOM      7  N   LIG    1        3.753  -3.992  -3.621  0.00  0.00    -0.510 N 
ATOM      8  H   LIG    1        4.149  -4.442  -2.810  0.00  0.00    +0.430 HD
ATOM      9  H   LIG    1        3.793  -2.991  -3.503  0.00  0.00    +0.430 HD
ENDBRANCH   1   2
BRANCH   1  10
ATOM     10  C   LIG    1        1.514  -2.407  -2.538  0.00  0.00    -0.040 C 
BRANCH  10  11
ATOM     11  C   LIG    1        0.751  -1.891  -3.760  0.00  0.00    +0.010 C 
ATOM     12  C   LIG    1        0.838  -0.364  -3.808  0.00  0.00    +0.010 C 
ENDBRANCH  10  11
BRANCH  10  13
ATOM     13  C   LIG    1        0.813  -1.934  -1.263  0.00  0.00    +0.030 C 
BRANCH  13  14
ATOM     14  C   LIG    1        1.651  -2.329  -0.044  0.00  0.00    +0.000 C 
BRANCH  14  16
ATOM     15  C   LIG    1        1.857  -2.137   2.438  0.00  0.00    +0.000 C 
ATOM     16  C   LIG    1        1.020  -1.742   1.220  0.00  0.00    -0.010 C 
ENDBRANCH  14  16
ENDBRANCH  13  14
ENDBRANCH  10  13
ENDBRANCH   1  10
TORSDOF 6
ENDMDL
MODEL        6
REMARK  Name = ZINC000036156691
REMARK                            x       y       z     vdW  Elec       q    Type
REMARK                         _______ _______ _______ _____ _____    ______ ____
ROOT
ATOM      1  C   LIG    1        1.382  -2.542   2.512  0.00  0.00    -0.160 A 
ATOM      2  C   LIG    1        2.757  -2.553   2.656  0.00  0.00    +0.000 A 
ATOM      3  C   LIG    1        3.325  -3.013   3.830  0.00  0.00    +0.020 A 
ATOM      4  C   LIG    1        2.519  -3.461   4.859  0.00  0.00    -0.040 A 
ATOM      5  C   LIG    1        1.144  -3.448   4.716  0.00  0.00    +0.040 A 
ATOM      6  C   LIG    1        0.576  -2.985   3.544  0.00  0.00    +0.050 A 
ENDROOT
BRANCH   4   7
ATOM      7  C   LIG    1        3.138  -3.962   6.138  0.00  0.00    +0.010 C 
ATOM      8  C   LIG    1        2.730  -5.419   6.366  0.00  0.00    +0.040 C 
ATOM      9  C   LIG    1        2.652  -3.107   7.310  0.00  0.00    +0.040 C 
ENDBRANCH   4   7
BRANCH   1  10
ATOM     10  C   LIG    1        0.763  -2.041   1.233  0.00  0.00    +0.240 C 
BRANCH  10  11
ATOM     11  N   LIG    1        1.553  -2.513   0.088  0.00  0.00    -0.640 N 
ATOM     12  H   LIG    1        2.497  -2.165   0.164  0.00  0.00    +0.430 HD
ATOM     13  H   LIG    1        1.138  -2.178  -0.768  0.00  0.00    +0.440 HD
ATOM     14  H   LIG    1        1.567  -3.522   0.083  0.00  0.00    +0.440 HD
ENDBRANCH  10  11
BRANCH  10  15
ATOM     15  C   LIG    1        0.742  -0.511   1.242  0.00  0.00    +0.060 C 
BRANCH  15  17
ATOM     16  C   LIG    1       -0.019   1.526   0.010  0.00  0.00    +0.030 C 
ATOM     17  C   LIG    1        0.002  -0.004   0.002  0.00  0.00    -0.000 C 
ENDBRANCH  15  17
ENDBRANCH  10  15
ENDBRANCH   1  10
TORSDOF 5
ENDMDL
MODEL        7
REMARK  Name = ZINC000054438834
REMARK                            x       y       z     vdW  Elec       q    Type
REMARK                         _______ _______ _______ _____ _____    ______ ____
ROOT
ATOM      1  C   LIG    1       -2.822  -2.584  -0.109  0.00  0.00    -0.130 A 
ATOM      2  C   LIG    1       -3.423  -2.727  -1.371  0.00  0.00    -0.030 A 
ATOM      3  C   LIG    1       -2.735  -2.392  -2.549  0.00  0.00    +0.000 A 
ATOM      4  C   LIG    1       -3.349  -2.543  -3.754  0.00  0.00    +0.040 A 
ATOM      5  C   LIG    1       -4.654  -3.026  -3.839  0.00  0.00    +0.020 A 
ATOM      6  C   LIG    1       -5.351  -3.360  -2.719  0.00  0.00    +0.050 A 
ATOM      7  C   LIG    1       -4.750  -3.218  -1.457  0.00  0.00    -0.050 A 
ATOM      8  C   LIG    1       -5.438  -3.553  -0.279  0.00  0.00    +0.070 A 
ATOM      9  C   LIG    1       -4.824  -3.403   0.926  0.00  0.00    +0.020 A 
ATOM     10  C   LIG    1       -3.518  -2.925   1.011  0.00  0.00    +0.020 A 
ENDROOT
BRANCH   1  11
ATOM     11  C   LIG    1       -1.413  -2.063   0.004  0.00  0.00    +0.230 C 
BRANCH  11  12
ATOM     12  N   LIG    1       -0.809  -2.552   1.251  0.00  0.00    -0.640 N 
ATOM     13  H   LIG    1       -1.351  -2.227   2.038  0.00  0.00    +0.430 HD
ATOM     14  H   LIG    1        0.135  -2.203   1.327  0.00  0.00    +0.440 HD
ATOM     15  H   LIG    1       -0.795  -3.561   1.246  0.00  0.00    +0.440 HD
ENDBRANCH  11  12
BRANCH  11  16
ATOM     16  C   LIG    1       -1.433  -0.534   0.013  0.00  0.00    +0.060 C 
BRANCH  16  18
ATOM     17  C   LIG    1       -0.019   1.526   0.010  0.00  0.00    +0.030 C 
ATOM     18  C   LIG    1        0.002  -0.004   0.002  0.00  0.00    -0.000 C 
ENDBRANCH  16  18
ENDBRANCH  11  16
ENDBRANCH   1  11
TORSDOF 4
ENDMDL
MODEL        8
REMARK  Name = ZINC000019804118
REMARK                            x       y       z     vdW  Elec       q    Type
REMARK                         _______ _______ _______ _____ _____    ______ ____
ROOT
ATOM      1  C   LIG    1        1.455  -2.521  -2.524  0.00  0.00    +0.240 C 
ENDROOT
BRANCH   1   2
ATOM      2  C   LIG    1        1.584  -4.021  -2.473  0.00  0.00    -0.150 A 
ATOM      3  C   LIG    1        0.510  -4.819  -2.819  0.00  0.00    +0.020 A 
ATOM      4  C   LIG    1        0.628  -6.196  -2.773  0.00  0.00    +0.050 A 
ATOM      5  C   LIG    1        1.821  -6.775  -2.379  0.00  0.00    -0.010 A 
ATOM      6  C   LIG    1        2.896  -5.976  -2.033  0.00  0.00    +0.050 A 
ATOM      7 CL   LIG    1        1.970  -8.503  -2.321  0.00  0.00    -0.040 Cl
ATOM      8  C   LIG    1        2.779  -4.599  -2.085  0.00  0.00    +0.070 A 
ENDBRANCH   1   2
BRANCH   1   9
ATOM      9  N   LIG    1        0.680  -2.136  -3.711  0.00  0.00    -0.640 N 
ATOM     10  H   LIG    1        0.593  -1.131  -3.745  0.00  0.00    +0.440 HD
ATOM     11  H   LIG    1       -0.238  -2.551  -3.662  0.00  0.00    +0.430 HD
ATOM     12  H   LIG    1        1.152  -2.462  -4.541  0.00  0.00    +0.440 HD
ENDBRANCH   1   9
BRANCH   1  13
ATOM     13  C   LIG    1        0.739  -2.027  -1.265  0.00  0.00    +0.060 C 
BRANCH  13  14
ATOM     14  C   LIG    1        0.718  -0.497  -1.257  0.00  0.00    -0.000 C 
BRANCH  14  16
ATOM     15  C   LIG    1       -0.019   1.526   0.010  0.00  0.00    +0.020 C 
ATOM     16  C   LIG    1        0.002  -0.004   0.002  0.00  0.00    +0.010 C 
ENDBRANCH  14  16
ENDBRANCH  13  14
ENDBRANCH   1  13
TORSDOF 5
ENDMDL
MODEL        9
REMARK  Name = ZINC000037245892
REMARK                            x       y       z     vdW  Elec       q    Type
REMARK                         _______ _______ _______ _____ _____    ______ ____
ROOT
ATOM      1  C   LIG    1       -0.611   3.004   1.288  0.00  0.00    -0.010 C 
ATOM      2  C   LIG    1       -1.485   3.618   0.192  0.00  0.00    +0.030 C 
ATOM      3  C   LIG    1       -2.021   2.507  -0.714  0.00  0.00    -0.030 C 
ATOM      4  C   LIG    1       -3.544   2.619  -0.811  0.00  0.00    +0.020 C 
ATOM      5  C   LIG    1       -4.178   1.274  -0.448  0.00  0.00    +0.000 C 
ATOM      6  C   LIG    1       -5.220   1.482   0.652  0.00  0.00    +0.010 C 
ATOM      7  C   LIG    1       -4.924   0.538   1.819  0.00  0.00    +0.000 C 
ATOM      8  C   LIG    1       -4.837   1.343   3.117  0.00  0.00    +0.000 C 
ATOM      9  C   LIG    1       -3.515   1.035   3.821  0.00  0.00    +0.000 C 
ATOM     10  C   LIG    1       -2.778   2.342   4.120  0.00  0.00    +0.010 C 
ATOM     11  C   LIG    1       -1.358   2.268   3.556  0.00  0.00    -0.010 C 
ATOM     12  C   LIG    1       -1.102   3.480   2.657  0.00  0.00    +0.040 C 
ENDROOT
BRANCH   1  13
ATOM     13  C   LIG    1       -0.699   1.479   1.216  0.00  0.00    +0.270 C 
BRANCH  13  14
ATOM     14  N   LIG    1       -0.047   1.008  -0.013  0.00  0.00    -0.650 N 
ATOM     15  H   LIG    1       -0.232   1.658  -0.762  0.00  0.00    +0.440 HD
ATOM     16  H   LIG    1        0.949   0.944   0.138  0.00  0.00    +0.430 HD
ATOM     17  H   LIG    1       -0.409   0.099  -0.259  0.00  0.00    +0.440 HD
ENDBRANCH  13  14
ENDBRANCH   1  13
TORSDOF 2
ENDMDL
MODEL       10
REMARK  Name = ZINC000019979084
REMARK                            x       y       z     vdW  Elec       q    Type
REMARK                         _______ _______ _______ _____ _____    ______ ____
ROOT
ATOM      1  N   LIG    1        2.314  -4.550   1.320  0.00  0.00    -0.510 N 
ATOM      2  H   LIG    1        3.276  -4.271   1.437  0.00  0.00    +0.430 HD
ATOM      3  H   LIG    1        1.948  -4.148   0.469  0.00  0.00    +0.420 HD
ENDROOT
BRANCH   1   4
ATOM      4  C   LIG    1        2.235  -6.015   1.242  0.00  0.00    +0.160 C 
ATOM      5  C   LIG    1        0.794  -6.433   0.940  0.00  0.00    +0.040 C 
ATOM      6  C   LIG    1        0.713  -7.959   0.859  0.00  0.00    +0.030 C 
ATOM      7  C   LIG    1        1.634  -8.460  -0.255  0.00  0.00    +0.020 C 
ATOM      8  C   LIG    1        3.074  -8.042   0.047  0.00  0.00    +0.040 C 
ATOM      9  C   LIG    1        3.156  -6.517   0.128  0.00  0.00    +0.040 C 
ENDBRANCH   1   4
BRANCH   1  10
ATOM     10  C   LIG    1        1.524  -4.077   2.464  0.00  0.00    +0.160 C 
ATOM     11  C   LIG    1        2.152  -4.586   3.763  0.00  0.00    +0.090 C 
BRANCH  10  12
ATOM     12  C   LIG    1        1.503  -2.548   2.473  0.00  0.00    +0.050 C 
BRANCH  12  13
ATOM     13  C   LIG    1        0.763  -2.041   1.233  0.00  0.00    +0.010 C 
BRANCH  13  14
ATOM     14  C   LIG    1        0.742  -0.511   1.242  0.00  0.00    +0.020 C 
BRANCH  14  16
ATOM     15  C   LIG    1       -0.019   1.526   0.010  0.00  0.00    +0.020 C 
ATOM     16  C   LIG    1        0.002  -0.004   0.002  0.00  0.00    -0.010 C 
ENDBRANCH  14  16
ENDBRANCH  13  14
ENDBRANCH  12  13
ENDBRANCH  10  12
ENDBRANCH   1  10
TORSDOF 6
ENDMDL
MODEL       11
REMARK  Name = ZINC000019979080
REMARK                            x       y       z     vdW  Elec       q    Type
REMARK                         _______ _______ _______ _____ _____    ______ ____
ROOT
ATOM      1  N   LIG    1        0.191  -4.519   2.561  0.00  0.00    -0.510 N 
ATOM      2  H   LIG    1       -0.236  -4.255   1.686  0.00  0.00    +0.420 HD
ATOM      3  H   LIG    1       -0.343  -4.135   3.326  0.00  0.00    +0.430 HD
ENDROOT
BRANCH   1   4
ATOM      4  C   LIG    1        0.216  -5.984   2.670  0.00  0.00    +0.160 C 
ATOM      5  C   LIG    1       -1.216  -6.513   2.772  0.00  0.00    +0.040 C 
ATOM      6  C   LIG    1       -1.190  -8.039   2.885  0.00  0.00    +0.040 C 
ATOM      7  C   LIG    1       -0.514  -8.630   1.647  0.00  0.00    +0.020 C 
ATOM      8  C   LIG    1        0.918  -8.102   1.544  0.00  0.00    +0.030 C 
ATOM      9  C   LIG    1        0.891  -6.576   1.431  0.00  0.00    +0.040 C 
ENDBRANCH   1   4
BRANCH   1  10
ATOM     10  C   LIG    1        1.564  -4.001   2.612  0.00  0.00    +0.160 C 
ATOM     11  C   LIG    1        2.163  -4.279   3.992  0.00  0.00    +0.090 C 
BRANCH  10  12
ATOM     12  C   LIG    1        1.549  -2.492   2.357  0.00  0.00    +0.050 C 
BRANCH  12  13
ATOM     13  C   LIG    1        1.067  -2.221   0.931  0.00  0.00    +0.010 C 
BRANCH  13  14
ATOM     14  C   LIG    1        1.052  -0.712   0.676  0.00  0.00    +0.020 C 
BRANCH  14  16
ATOM     15  C   LIG    1        0.555   1.068  -1.006  0.00  0.00    +0.020 C 
ATOM     16  C   LIG    1        0.570  -0.441  -0.751  0.00  0.00    -0.010 C 
ENDBRANCH  14  16
ENDBRANCH  13  14
ENDBRANCH  12  13
ENDBRANCH  10  12
ENDBRANCH   1  10
TORSDOF 6
ENDMDL
MODEL       12
REMARK  Name = ZINC000020481350
REMARK                            x       y       z     vdW  Elec       q    Type
REMARK                         _______ _______ _______ _____ _____    ______ ____
ROOT
ATOM      1  C   LIG    1       -2.827  -4.123   0.007  0.00  0.00    +0.290 C 
ENDROOT
BRANCH   1   2
ATOM      2  C   LIG    1       -4.237  -4.644  -0.106  0.00  0.00    -0.290 A 
ATOM      3  C   LIG    1       -4.806  -5.085  -1.229  0.00  0.00    +0.100 A 
ATOM      4  C   LIG    1       -6.114  -5.516  -1.090  0.00  0.00    +0.000 A 
ATOM      5  C   LIG    1       -6.607  -5.426   0.146  0.00  0.00    -0.120 A 
ATOM      6  C   LIG    1       -7.999  -5.829   0.558  0.00  0.00    +0.160 C 
ATOM      7  S   LIG    1       -5.381  -4.770   1.224  0.00  0.00    +0.100 S 
ENDBRANCH   1   2
BRANCH   1   8
ATOM      8  N   LIG    1       -2.223  -4.611   1.254  0.00  0.00    -0.640 N 
ATOM      9  H   LIG    1       -2.766  -4.287   2.040  0.00  0.00    +0.430 HD
ATOM     10  H   LIG    1       -1.280  -4.263   1.330  0.00  0.00    +0.440 HD
ATOM     11  H   LIG    1       -2.210  -5.620   1.248  0.00  0.00    +0.440 HD
ENDBRANCH   1   8
BRANCH   1  12
ATOM     12  C   LIG    1       -2.848  -2.593   0.015  0.00  0.00    +0.070 C 
BRANCH  12  13
ATOM     13  C   LIG    1       -1.413  -2.063   0.004  0.00  0.00    -0.000 C 
BRANCH  13  14
ATOM     14  C   LIG    1       -1.433  -0.534   0.013  0.00  0.00    +0.020 C 
BRANCH  14  16
ATOM     15  C   LIG    1       -0.019   1.526   0.010  0.00  0.00    +0.020 C 
ATOM     16  C   LIG    1        0.002  -0.004   0.002  0.00  0.00    -0.010 C 
ENDBRANCH  14  16
ENDBRANCH  13  14
ENDBRANCH  12  13
ENDBRANCH   1  12
TORSDOF 6
ENDMDL
MODEL       13
REMARK  Name = ZINC000020481214
REMARK                            x       y       z     vdW  Elec       q    Type
REMARK                         _______ _______ _______ _____ _____    ______ ____
ROOT
ATOM      1  C   LIG    1        1.524  -4.077   2.464  0.00  0.00    +0.240 C 
ENDROOT
BRANCH   1   2
ATOM      2  C   LIG    1        2.356  -4.575   3.618  0.00  0.00    -0.160 A 
ATOM      3  C   LIG    1        1.815  -4.629   4.888  0.00  0.00    +0.000 A 
ATOM      4  C   LIG    1        2.579  -5.085   5.946  0.00  0.00    +0.030 A 
ATOM      5  C   LIG    1        3.884  -5.488   5.733  0.00  0.00    -0.050 A 
ATOM      6  C   LIG    1        4.425  -5.435   4.462  0.00  0.00    +0.030 A 
ATOM      7  C   LIG    1        4.717  -5.985   6.887  0.00  0.00    +0.110 C 
ATOM      8  C   LIG    1        3.660  -4.982   3.404  0.00  0.00    +0.050 A 
ENDBRANCH   1   2
BRANCH   1   9
ATOM      9  N   LIG    1        0.152  -4.587   2.595  0.00  0.00    -0.640 N 
ATOM     10  H   LIG    1        0.166  -5.595   2.590  0.00  0.00    +0.440 HD
ATOM     11  H   LIG    1       -0.406  -4.253   1.823  0.00  0.00    +0.440 HD
ATOM     12  H   LIG    1       -0.246  -4.260   3.463  0.00  0.00    +0.430 HD
ENDBRANCH   1   9
BRANCH   1  13
ATOM     13  C   LIG    1        1.503  -2.548   2.473  0.00  0.00    +0.060 C 
BRANCH  13  14
ATOM     14  C   LIG    1        0.763  -2.041   1.233  0.00  0.00    -0.000 C 
BRANCH  14  15
ATOM     15  C   LIG    1        0.742  -0.511   1.242  0.00  0.00    +0.020 C 
BRANCH  15  17
ATOM     16  C   LIG    1       -0.019   1.526   0.010  0.00  0.00    +0.020 C 
ATOM     17  C   LIG    1        0.002  -0.004   0.002  0.00  0.00    -0.010 C 
ENDBRANCH  15  17
ENDBRANCH  14  15
ENDBRANCH  13  14
ENDBRANCH   1  13
TORSDOF 6
ENDMDL
MODEL       14
REMARK  Name = ZINC000020481212
REMARK                            x       y       z     vdW  Elec       q    Type
REMARK                         _______ _______ _______ _____ _____    ______ ____
ROOT
ATOM      1  C   LIG    1        1.524  -4.077   2.464  0.00  0.00    +0.240 C 
ENDROOT
BRANCH   1   2
ATOM      2  C   LIG    1        2.143  -4.578   3.743  0.00  0.00    -0.160 A 
ATOM      3  C   LIG    1        3.518  -4.590   3.888  0.00  0.00    +0.000 A 
ATOM      4  C   LIG    1        4.086  -5.049   5.061  0.00  0.00    +0.030 A 
ATOM      5  C   LIG    1        3.280  -5.497   6.090  0.00  0.00    -0.050 A 
ATOM      6  C   LIG    1        1.905  -5.485   5.947  0.00  0.00    +0.030 A 
ATOM      7  C   LIG    1        3.899  -5.999   7.369  0.00  0.00    +0.110 C 
ATOM      8  C   LIG    1        1.336  -5.021   4.775  0.00  0.00    +0.050 A 
ENDBRANCH   1   2
BRANCH   1   9
ATOM      9  N   LIG    1        2.314  -4.550   1.320  0.00  0.00    -0.640 N 
ATOM     10  H   LIG    1        1.899  -4.215   0.463  0.00  0.00    +0.440 HD
ATOM     11  H   LIG    1        2.327  -5.559   1.314  0.00  0.00    +0.440 HD
ATOM     12  H   LIG    1        3.257  -4.201   1.395  0.00  0.00    +0.430 HD
ENDBRANCH   1   9
BRANCH   1  13
ATOM     13  C   LIG    1        1.503  -2.548   2.473  0.00  0.00    +0.060 C 
BRANCH  13  14
ATOM     14  C   LIG    1        0.763  -2.041   1.233  0.00  0.00    -0.000 C 
BRANCH  14  15
ATOM     15  C   LIG    1        0.742  -0.511   1.242  0.00  0.00    +0.020 C 
BRANCH  15  17
ATOM     16  C   LIG    1       -0.019   1.526   0.010  0.00  0.00    +0.020 C 
ATOM     17  C   LIG    1        0.002  -0.004   0.002  0.00  0.00    -0.010 C 
ENDBRANCH  15  17
ENDBRANCH  14  15
ENDBRANCH  13  14
ENDBRANCH   1  13
TORSDOF 6
ENDMDL
MODEL       15
REMARK  Name = ZINC000020481352
REMARK                            x       y       z     vdW  Elec       q    Type
REMARK                         _______ _______ _______ _____ _____    ______ ____
ROOT
ATOM      1  C   LIG    1       -2.827  -4.123   0.007  0.00  0.00    +0.290 C 
ENDROOT
BRANCH   1   2
ATOM      2  C   LIG    1       -4.234  -4.645   0.141  0.00  0.00    -0.290 A 
ATOM      3  C   LIG    1       -4.785  -5.089   1.272  0.00  0.00    +0.100 A 
ATOM      4  C   LIG    1       -6.095  -5.520   1.153  0.00  0.00    +0.000 A 
ATOM      5  C   LIG    1       -6.608  -5.427  -0.075  0.00  0.00    -0.120 A 
ATOM      6  C   LIG    1       -8.007  -5.829  -0.464  0.00  0.00    +0.160 C 
ATOM      7  S   LIG    1       -5.404  -4.756  -1.167  0.00  0.00    +0.100 S 
ENDBRANCH   1   2
BRANCH   1   8
ATOM      8  N   LIG    1       -2.247  -4.598  -1.256  0.00  0.00    -0.640 N 
ATOM      9  H   LIG    1       -2.805  -4.265  -2.029  0.00  0.00    +0.430 HD
ATOM     10  H   LIG    1       -2.234  -5.607  -1.262  0.00  0.00    +0.440 HD
ATOM     11  H   LIG    1       -1.305  -4.248  -1.347  0.00  0.00    +0.440 HD
ENDBRANCH   1   8
BRANCH   1  12
ATOM     12  C   LIG    1       -2.848  -2.593   0.015  0.00  0.00    +0.070 C 
BRANCH  12  13
ATOM     13  C   LIG    1       -1.413  -2.063   0.004  0.00  0.00    -0.000 C 
BRANCH  13  14
ATOM     14  C   LIG    1       -1.433  -0.534   0.013  0.00  0.00    +0.020 C 
BRANCH  14  16
ATOM     15  C   LIG    1       -0.019   1.526   0.010  0.00  0.00    +0.020 C 
ATOM     16  C   LIG    1        0.002  -0.004   0.002  0.00  0.00    -0.010 C 
ENDBRANCH  14  16
ENDBRANCH  13  14
ENDBRANCH  12  13
ENDBRANCH   1  12
TORSDOF 6
ENDMDL
MODEL       16
REMARK  Name = ZINC000036156689
REMARK                            x       y       z     vdW  Elec       q    Type
REMARK                         _______ _______ _______ _____ _____    ______ ____
ROOT
ATOM      1  C   LIG    1        1.596  -2.538   2.386  0.00  0.00    -0.150 A 
ATOM      2  C   LIG    1        1.054  -2.592   3.657  0.00  0.00    +0.000 A 
ATOM      3  C   LIG    1        1.818  -3.049   4.715  0.00  0.00    +0.020 A 
ATOM      4  C   LIG    1        3.123  -3.451   4.502  0.00  0.00    -0.040 A 
ATOM      5  C   LIG    1        3.664  -3.398   3.231  0.00  0.00    +0.040 A 
ATOM      6  C   LIG    1        2.899  -2.946   2.173  0.00  0.00    +0.050 A 
ENDROOT
BRANCH   4   7
ATOM      7  C   LIG    1        3.956  -3.948   5.656  0.00  0.00    +0.010 C 
ATOM      8  C   LIG    1        5.189  -3.056   5.816  0.00  0.00    +0.040 C 
ATOM      9  C   LIG    1        4.399  -5.387   5.382  0.00  0.00    +0.040 C 
ENDBRANCH   4   7
BRANCH   1  10
ATOM     10  C   LIG    1        0.763  -2.041   1.233  0.00  0.00    +0.240 C 
BRANCH  10  11
ATOM     11  N   LIG    1       -0.609  -2.550   1.364  0.00  0.00    -0.640 N 
ATOM     12  H   LIG    1       -1.007  -2.224   2.232  0.00  0.00    +0.430 HD
ATOM     13  H   LIG    1       -0.595  -3.559   1.359  0.00  0.00    +0.440 HD
ATOM     14  H   LIG    1       -1.167  -2.217   0.592  0.00  0.00    +0.440 HD
ENDBRANCH  10  11
BRANCH  10  15
ATOM     15  C   LIG    1        0.742  -0.511   1.242  0.00  0.00    +0.060 C 
BRANCH  15  17
ATOM     16  C   LIG    1       -0.019   1.526   0.010  0.00  0.00    +0.030 C 
ATOM     17  C   LIG    1        0.002  -0.004   0.002  0.00  0.00    -0.000 C 
ENDBRANCH  15  17
ENDBRANCH  10  15
ENDBRANCH   1  10
TORSDOF 5
ENDMDL
MODEL       17
REMARK  Name = ZINC000054438832
REMARK                            x       y       z     vdW  Elec       q    Type
REMARK                         _______ _______ _______ _____ _____    ______ ____
ROOT
ATOM      1  C   LIG    1       -2.820  -2.586   0.139  0.00  0.00    -0.130 A 
ATOM      2  C   LIG    1       -3.438  -2.632   1.400  0.00  0.00    -0.030 A 
ATOM      3  C   LIG    1       -2.770  -2.197   2.557  0.00  0.00    +0.000 A 
ATOM      4  C   LIG    1       -3.401  -2.257   3.761  0.00  0.00    +0.040 A 
ATOM      5  C   LIG    1       -4.703  -2.744   3.866  0.00  0.00    +0.020 A 
ATOM      6  C   LIG    1       -5.381  -3.174   2.768  0.00  0.00    +0.050 A 
ATOM      7  C   LIG    1       -4.762  -3.127   1.506  0.00  0.00    -0.050 A 
ATOM      8  C   LIG    1       -5.431  -3.561   0.349  0.00  0.00    +0.070 A 
ATOM      9  C   LIG    1       -4.800  -3.501  -0.856  0.00  0.00    +0.020 A 
ATOM     10  C   LIG    1       -3.500  -3.010  -0.961  0.00  0.00    +0.010 A 
ENDROOT
BRANCH   1  11
ATOM     11  C   LIG    1       -1.413  -2.063   0.004  0.00  0.00    +0.230 C 
BRANCH  11  12
ATOM     12  N   LIG    1       -0.833  -2.538  -1.259  0.00  0.00    -0.640 N 
ATOM     13  H   LIG    1       -1.390  -2.205  -2.031  0.00  0.00    +0.430 HD
ATOM     14  H   LIG    1       -0.819  -3.547  -1.264  0.00  0.00    +0.440 HD
ATOM     15  H   LIG    1        0.110  -2.189  -1.349  0.00  0.00    +0.440 HD
ENDBRANCH  11  12
BRANCH  11  16
ATOM     16  C   LIG    1       -1.433  -0.534   0.013  0.00  0.00    +0.060 C 
BRANCH  16  18
ATOM     17  C   LIG    1       -0.019   1.526   0.010  0.00  0.00    +0.030 C 
ATOM     18  C   LIG    1        0.002  -0.004   0.002  0.00  0.00    -0.000 C 
ENDBRANCH  16  18
ENDBRANCH  11  16
ENDBRANCH   1  11
TORSDOF 4
ENDMDL
MODEL       18
REMARK  Name = ZINC000036420391
REMARK                            x       y       z     vdW  Elec       q    Type
REMARK                         _______ _______ _______ _____ _____    ______ ____
ROOT
ATOM      1  C   LIG    1        1.503  -2.548   2.473  0.00  0.00    +0.230 C 
ENDROOT
BRANCH   1   2
ATOM      2  C   LIG    1        1.631  -4.048   2.403  0.00  0.00    -0.130 A 
ATOM      3  C   LIG    1        0.698  -4.851   3.031  0.00  0.00    +0.010 A 
ATOM      4  C   LIG    1        0.815  -6.227   2.967  0.00  0.00    +0.040 A 
ATOM      5  C   LIG    1        1.866  -6.800   2.276  0.00  0.00    +0.070 A 
ATOM      6  C   LIG    1        2.800  -5.998   1.647  0.00  0.00    +0.060 A 
ATOM      7  C   LIG    1        2.679  -4.621   1.706  0.00  0.00    -0.020 A 
ATOM      8 CL   LIG    1        3.852  -3.613   0.917  0.00  0.00    -0.040 Cl
ENDBRANCH   1   2
BRANCH   1   9
ATOM      9  N   LIG    1        0.750  -2.176   3.678  0.00  0.00    -0.640 N 
ATOM     10  H   LIG    1        0.665  -1.171   3.725  0.00  0.00    +0.440 HD
ATOM     11  H   LIG    1        1.238  -2.510   4.496  0.00  0.00    +0.440 HD
ATOM     12  H   LIG    1       -0.169  -2.590   3.642  0.00  0.00    +0.430 HD
ENDBRANCH   1   9
BRANCH   1  13
ATOM     13  C   LIG    1        0.763  -2.041   1.233  0.00  0.00    +0.060 C 
BRANCH  13  14
ATOM     14  C   LIG    1        0.742  -0.511   1.242  0.00  0.00    +0.010 C 
BRANCH  14  16
ATOM     15  C   LIG    1       -0.019   1.526   0.010  0.00  0.00    +0.020 C 
ATOM     16  C   LIG    1        0.002  -0.004   0.002  0.00  0.00    +0.010 C 
ENDBRANCH  14  16
ENDBRANCH  13  14
ENDBRANCH   1  13
TORSDOF 5
ENDMDL
MODEL       19
REMARK  Name = ZINC000104396175
REMARK                            x       y       z     vdW  Elec       q    Type
REMARK                         _______ _______ _______ _____ _____    ______ ____
ROOT
ATOM      1  C   LIG    1       -0.016   1.351   0.009  0.00  0.00    +0.060 A 
ATOM      2  C   LIG    1       -1.232   2.034   0.031  0.00  0.00    +0.090 A 
ATOM      3  C   LIG    1       -1.244   3.414   0.038  0.00  0.00    +0.050 A 
ATOM      4  C   LIG    1       -0.054   4.119   0.025  0.00  0.00    +0.110 A 
ATOM      5  C   LIG    1        1.155   3.447   0.004  0.00  0.00    +0.050 A 
ATOM      6  C   LIG    1        1.181   2.068   0.002  0.00  0.00    -0.010 A 
ENDROOT
BRANCH   6   7
ATOM      7  C   LIG    1        2.498   1.337  -0.020  0.00  0.00    -0.050 C 
ATOM      8  C   LIG    1        2.574   0.460  -1.272  0.00  0.00    +0.030 C 
ATOM      9  C   LIG    1        2.615   0.457   1.226  0.00  0.00    +0.030 C 
ATOM     10  C   LIG    1        3.644   2.351  -0.038  0.00  0.00    +0.070 C 
ENDBRANCH   6   7
BRANCH   1  12
ATOM     11  C   LIG    1        0.018  -1.140  -0.004  0.00  0.00    +0.900 C 
ATOM     12  N   LIG    1        0.002  -0.004   0.002  0.00  0.00    -0.340 NA
ENDBRANCH   1  12
TORSDOF 2
ENDMDL
MODEL       20
REMARK  Name = ZINC000042728890
REMARK                            x       y       z     vdW  Elec       q    Type
REMARK                         _______ _______ _______ _____ _____    ______ ____
ROOT
ATOM      1  C   LIG    1       -2.827  -4.123   0.007  0.00  0.00    +0.280 C 
ENDROOT
BRANCH   1   2
ATOM      2  C   LIG    1       -4.237  -4.644  -0.106  0.00  0.00    -0.290 A 
ATOM      3  C   LIG    1       -4.775  -5.172  -1.206  0.00  0.00    -0.020 A 
ATOM      4  C   LIG    1       -6.090  -5.584  -1.072  0.00  0.00    +0.020 A 
ATOM      5  C   LIG    1       -6.619  -5.390   0.137  0.00  0.00    +0.030 A 
ATOM      6  C   LIG    1       -4.010  -5.311  -2.497  0.00  0.00    +0.130 C 
ATOM      7  S   LIG    1       -5.421  -4.655   1.194  0.00  0.00    +0.110 S 
ENDBRANCH   1   2
BRANCH   1   8
ATOM      8  N   LIG    1       -2.223  -4.611   1.254  0.00  0.00    -0.640 N 
ATOM      9  H   LIG    1       -2.766  -4.287   2.040  0.00  0.00    +0.430 HD
ATOM     10  H   LIG    1       -1.280  -4.263   1.330  0.00  0.00    +0.440 HD
ATOM     11  H   LIG    1       -2.210  -5.620   1.248  0.00  0.00    +0.440 HD
ENDBRANCH   1   8
BRANCH   1  12
ATOM     12  C   LIG    1       -2.848  -2.593   0.015  0.00  0.00    +0.070 C 
BRANCH  12  13
ATOM     13  C   LIG    1       -1.413  -2.063   0.004  0.00  0.00    +0.010 C 
BRANCH  13  14
ATOM     14  C   LIG    1       -1.433  -0.534   0.013  0.00  0.00    +0.020 C 
BRANCH  14  16
ATOM     15  C   LIG    1       -0.019   1.526   0.010  0.00  0.00    +0.020 C 
ATOM     16  C   LIG    1        0.002  -0.004   0.002  0.00  0.00    -0.010 C 
ENDBRANCH  14  16
ENDBRANCH  13  14
ENDBRANCH  12  13
ENDBRANCH   1  12
TORSDOF 6
ENDMDL
MODEL       21
REMARK  Name = ZINC000042728888
REMARK                            x       y       z     vdW  Elec       q    Type
REMARK                         _______ _______ _______ _____ _____    ______ ____
ROOT
ATOM      1  C   LIG    1       -2.827  -4.123   0.007  0.00  0.00    +0.280 C 
ENDROOT
BRANCH   1   2
ATOM      2  C   LIG    1       -4.234  -4.645   0.141  0.00  0.00    -0.290 A 
ATOM      3  C   LIG    1       -4.755  -5.176   1.249  0.00  0.00    -0.020 A 
ATOM      4  C   LIG    1       -6.072  -5.587   1.135  0.00  0.00    +0.020 A 
ATOM      5  C   LIG    1       -6.620  -5.391  -0.065  0.00  0.00    +0.030 A 
ATOM      6  C   LIG    1       -3.970  -5.316   2.527  0.00  0.00    +0.120 C 
ATOM      7  S   LIG    1       -5.444  -4.641  -1.136  0.00  0.00    +0.110 S 
ENDBRANCH   1   2
BRANCH   1   8
ATOM      8  N   LIG    1       -2.247  -4.598  -1.256  0.00  0.00    -0.640 N 
ATOM      9  H   LIG    1       -2.805  -4.265  -2.029  0.00  0.00    +0.430 HD
ATOM     10  H   LIG    1       -2.234  -5.607  -1.262  0.00  0.00    +0.440 HD
ATOM     11  H   LIG    1       -1.305  -4.248  -1.347  0.00  0.00    +0.440 HD
ENDBRANCH   1   8
BRANCH   1  12
ATOM     12  C   LIG    1       -2.848  -2.593   0.015  0.00  0.00    +0.070 C 
BRANCH  12  13
ATOM     13  C   LIG    1       -1.413  -2.063   0.004  0.00  0.00    +0.010 C 
BRANCH  13  14
ATOM     14  C   LIG    1       -1.433  -0.534   0.013  0.00  0.00    +0.020 C 
BRANCH  14  16
ATOM     15  C   LIG    1       -0.019   1.526   0.010  0.00  0.00    +0.020 C 
ATOM     16  C   LIG    1        0.002  -0.004   0.002  0.00  0.00    -0.010 C 
ENDBRANCH  14  16
ENDBRANCH  13  14
ENDBRANCH  12  13
ENDBRANCH   1  12
TORSDOF 6
ENDMDL
MODEL       22
REMARK  Name = ZINC000053818473
REMARK                            x       y       z     vdW  Elec       q    Type
REMARK                         _______ _______ _______ _____ _____    ______ ____
ROOT
ATOM      1  C   LIG    1        1.476  -4.051  -2.532  0.00  0.00    +0.240 C 
ENDROOT
BRANCH   1   2
ATOM      2  C   LIG    1        2.286  -4.535  -3.707  0.00  0.00    -0.140 A 
ATOM      3  C   LIG    1        1.724  -4.565  -4.969  0.00  0.00    -0.010 A 
ATOM      4  C   LIG    1        2.468  -5.010  -6.046  0.00  0.00    +0.040 A 
ATOM      5  C   LIG    1        3.773  -5.425  -5.861  0.00  0.00    +0.050 A 
ATOM      6  C   LIG    1        4.336  -5.394  -4.598  0.00  0.00    -0.070 A 
ATOM      7  C   LIG    1        5.759  -5.846  -4.396  0.00  0.00    +0.100 C 
ATOM      8  C   LIG    1        3.594  -4.945  -3.522  0.00  0.00    +0.040 A 
ENDBRANCH   1   2
BRANCH   1   9
ATOM      9  N   LIG    1        0.102  -4.558  -2.643  0.00  0.00    -0.640 N 
ATOM     10  H   LIG    1       -0.313  -4.223  -3.499  0.00  0.00    +0.430 HD
ATOM     11  H   LIG    1       -0.441  -4.234  -1.857  0.00  0.00    +0.440 HD
ATOM     12  H   LIG    1        0.116  -5.567  -2.648  0.00  0.00    +0.440 HD
ENDBRANCH   1   9
BRANCH   1  13
ATOM     13  C   LIG    1        1.455  -2.521  -2.524  0.00  0.00    +0.060 C 
BRANCH  13  14
ATOM     14  C   LIG    1        0.739  -2.027  -1.265  0.00  0.00    -0.000 C 
BRANCH  14  15
ATOM     15  C   LIG    1        0.718  -0.497  -1.257  0.00  0.00    +0.020 C 
BRANCH  15  17
ATOM     16  C   LIG    1       -0.019   1.526   0.010  0.00  0.00    +0.020 C 
ATOM     17  C   LIG    1        0.002  -0.004   0.002  0.00  0.00    -0.010 C 
ENDBRANCH  15  17
ENDBRANCH  14  15
ENDBRANCH  13  14
ENDBRANCH   1  13
TORSDOF 6
ENDMDL
MODEL       23
REMARK  Name = ZINC000053818357
REMARK                            x       y       z     vdW  Elec       q    Type
REMARK                         _______ _______ _______ _____ _____    ______ ____
ROOT
ATOM      1  C   LIG    1        1.476  -4.051  -2.532  0.00  0.00    +0.230 C 
ENDROOT
BRANCH   1   2
ATOM      2  C   LIG    1        2.071  -4.538  -3.829  0.00  0.00    -0.140 A 
ATOM      3  C   LIG    1        3.389  -4.951  -3.872  0.00  0.00    -0.010 A 
ATOM      4  C   LIG    1        3.935  -5.398  -5.061  0.00  0.00    +0.030 A 
ATOM      5  C   LIG    1        3.162  -5.432  -6.206  0.00  0.00    +0.050 A 
ATOM      6  C   LIG    1        1.843  -5.019  -6.163  0.00  0.00    +0.040 A 
ATOM      7  C   LIG    1        1.296  -4.576  -4.973  0.00  0.00    -0.050 A 
ATOM      8  C   LIG    1       -0.141  -4.126  -4.926  0.00  0.00    +0.090 C 
ENDBRANCH   1   2
BRANCH   1   9
ATOM      9  N   LIG    1        2.288  -4.535  -1.408  0.00  0.00    -0.640 N 
ATOM     10  H   LIG    1        3.230  -4.186  -1.498  0.00  0.00    +0.430 HD
ATOM     11  H   LIG    1        2.301  -5.544  -1.414  0.00  0.00    +0.440 HD
ATOM     12  H   LIG    1        1.889  -4.209  -0.540  0.00  0.00    +0.440 HD
ENDBRANCH   1   9
BRANCH   1  13
ATOM     13  C   LIG    1        1.455  -2.521  -2.524  0.00  0.00    +0.060 C 
BRANCH  13  14
ATOM     14  C   LIG    1        0.739  -2.027  -1.265  0.00  0.00    -0.000 C 
BRANCH  14  15
ATOM     15  C   LIG    1        0.718  -0.497  -1.257  0.00  0.00    +0.020 C 
BRANCH  15  17
ATOM     16  C   LIG    1       -0.019   1.526   0.010  0.00  0.00    +0.020 C 
ATOM     17  C   LIG    1        0.002  -0.004   0.002  0.00  0.00    -0.010 C 
ENDBRANCH  15  17
ENDBRANCH  14  15
ENDBRANCH  13  14
ENDBRANCH   1  13
TORSDOF 6
ENDMDL
MODEL       24
REMARK  Name = ZINC000053818358
REMARK                            x       y       z     vdW  Elec       q    Type
REMARK                         _______ _______ _______ _____ _____    ______ ____
ROOT
ATOM      1  C   LIG    1        1.476  -4.051  -2.532  0.00  0.00    +0.230 C 
ENDROOT
BRANCH   1   2
ATOM      2  C   LIG    1        2.286  -4.535  -3.707  0.00  0.00    -0.140 A 
ATOM      3  C   LIG    1        1.657  -4.861  -4.894  0.00  0.00    -0.010 A 
ATOM      4  C   LIG    1        2.401  -5.306  -5.971  0.00  0.00    +0.030 A 
ATOM      5  C   LIG    1        3.773  -5.425  -5.861  0.00  0.00    +0.050 A 
ATOM      6  C   LIG    1        4.403  -5.098  -4.674  0.00  0.00    +0.030 A 
ATOM      7  C   LIG    1        3.660  -4.649  -3.599  0.00  0.00    -0.050 A 
ATOM      8  C   LIG    1        4.346  -4.294  -2.305  0.00  0.00    +0.100 C 
ENDBRANCH   1   2
BRANCH   1   9
ATOM      9  N   LIG    1        0.102  -4.558  -2.643  0.00  0.00    -0.640 N 
ATOM     10  H   LIG    1       -0.313  -4.223  -3.499  0.00  0.00    +0.430 HD
ATOM     11  H   LIG    1       -0.441  -4.234  -1.857  0.00  0.00    +0.440 HD
ATOM     12  H   LIG    1        0.116  -5.567  -2.648  0.00  0.00    +0.440 HD
ENDBRANCH   1   9
BRANCH   1  13
ATOM     13  C   LIG    1        1.455  -2.521  -2.524  0.00  0.00    +0.060 C 
BRANCH  13  14
ATOM     14  C   LIG    1        0.739  -2.027  -1.265  0.00  0.00    -0.000 C 
BRANCH  14  15
ATOM     15  C   LIG    1        0.718  -0.497  -1.257  0.00  0.00    +0.020 C 
BRANCH  15  17
ATOM     16  C   LIG    1       -0.019   1.526   0.010  0.00  0.00    +0.020 C 
ATOM     17  C   LIG    1        0.002  -0.004   0.002  0.00  0.00    -0.010 C 
ENDBRANCH  15  17
ENDBRANCH  14  15
ENDBRANCH  13  14
ENDBRANCH   1  13
TORSDOF 6
ENDMDL
MODEL       25
REMARK  Name = ZINC000053816727
REMARK                            x       y       z     vdW  Elec       q    Type
REMARK                         _______ _______ _______ _____ _____    ______ ____
ROOT
ATOM      1  C   LIG    1        1.503  -2.548   2.473  0.00  0.00    +0.240 C 
ENDROOT
BRANCH   1   2
ATOM      2  C   LIG    1        1.631  -4.048   2.403  0.00  0.00    -0.130 A 
ATOM      3  C   LIG    1        0.560  -4.849   2.750  0.00  0.00    +0.010 A 
ATOM      4  C   LIG    1        0.676  -6.225   2.686  0.00  0.00    +0.060 A 
ATOM      5  C   LIG    1        1.864  -6.800   2.275  0.00  0.00    +0.070 A 
ATOM      6  C   LIG    1        2.936  -5.998   1.927  0.00  0.00    -0.030 A 
ATOM      7 CL   LIG    1        4.428  -6.720   1.411  0.00  0.00    -0.040 Cl
ATOM      8  C   LIG    1        2.817  -4.621   1.986  0.00  0.00    +0.070 A 
ENDBRANCH   1   2
BRANCH   1   9
ATOM      9  N   LIG    1        0.750  -2.176   3.678  0.00  0.00    -0.640 N 
ATOM     10  H   LIG    1        1.238  -2.510   4.496  0.00  0.00    +0.440 HD
ATOM     11  H   LIG    1       -0.169  -2.590   3.642  0.00  0.00    +0.430 HD
ATOM     12  H   LIG    1        0.665  -1.171   3.725  0.00  0.00    +0.440 HD
ENDBRANCH   1   9
BRANCH   1  13
ATOM     13  C   LIG    1        0.763  -2.041   1.233  0.00  0.00    +0.070 C 
BRANCH  13  14
ATOM     14  C   LIG    1        0.742  -0.511   1.242  0.00  0.00    -0.000 C 
BRANCH  14  16
ATOM     15  C   LIG    1       -0.019   1.526   0.010  0.00  0.00    +0.020 C 
ATOM     16  C   LIG    1        0.002  -0.004   0.002  0.00  0.00    +0.010 C 
ENDBRANCH  14  16
ENDBRANCH  13  14
ENDBRANCH   1  13
TORSDOF 5
ENDMDL
MODEL       26
REMARK  Name = ZINC000054681527
REMARK                            x       y       z     vdW  Elec       q    Type
REMARK                         _______ _______ _______ _____ _____    ______ ____
ROOT
ATOM      1  C   LIG    1       -0.815  -2.262   1.821  0.00  0.00    +0.230 C 
ENDROOT
BRANCH   1   2
ATOM      2  C   LIG    1       -0.755  -3.745   2.081  0.00  0.00    -0.150 A 
ATOM      3  C   LIG    1       -1.875  -4.412   2.540  0.00  0.00    +0.000 A 
ATOM      4  C   LIG    1       -1.821  -5.772   2.779  0.00  0.00    +0.040 A 
ATOM      5  C   LIG    1       -0.645  -6.466   2.559  0.00  0.00    +0.050 A 
ATOM      6  C   LIG    1        0.475  -5.799   2.099  0.00  0.00    +0.030 A 
ATOM      7  C   LIG    1        0.419  -4.439   1.856  0.00  0.00    +0.040 A 
ENDBRANCH   1   2
BRANCH   1   8
ATOM      8  N   LIG    1       -1.596  -1.609   2.880  0.00  0.00    -0.640 N 
ATOM      9  H   LIG    1       -2.531  -1.987   2.889  0.00  0.00    +0.430 HD
ATOM     10  H   LIG    1       -1.636  -0.617   2.706  0.00  0.00    +0.440 HD
ATOM     11  H   LIG    1       -1.157  -1.777   3.773  0.00  0.00    +0.440 HD
ENDBRANCH   1   8
BRANCH   1  12
ATOM     12  C   LIG    1       -1.481  -2.008   0.467  0.00  0.00    +0.060 C 
BRANCH  12  13
ATOM     13  C   LIG    1       -1.430  -0.513   0.145  0.00  0.00    -0.040 C 
BRANCH  13  15
ATOM     14  C   LIG    1        0.087   1.439  -0.217  0.00  0.00    +0.010 C 
ATOM     15  C   LIG    1        0.026  -0.079  -0.032  0.00  0.00    +0.010 C 
ENDBRANCH  13  15
BRANCH  13  16
ATOM     16  C   LIG    1       -2.204  -0.242  -1.147  0.00  0.00    +0.030 C 
ATOM     17  C   LIG    1       -3.688  -0.543  -0.925  0.00  0.00    +0.000 C 
ENDBRANCH  13  16
ENDBRANCH  12  13
ENDBRANCH   1  12
TORSDOF 6
ENDMDL
MODEL       27
REMARK  Name = ZINC000054681522
REMARK                            x       y       z     vdW  Elec       q    Type
REMARK                         _______ _______ _______ _____ _____    ______ ____
ROOT
ATOM      1  C   LIG    1       -0.213  -2.776   1.076  0.00  0.00    +0.230 C 
ENDROOT
BRANCH   1   2
ATOM      2  C   LIG    1        0.111  -4.246   0.998  0.00  0.00    -0.150 A 
ATOM      3  C   LIG    1        1.147  -4.684   0.195  0.00  0.00    +0.000 A 
ATOM      4  C   LIG    1        1.444  -6.032   0.124  0.00  0.00    +0.040 A 
ATOM      5  C   LIG    1        0.705  -6.943   0.856  0.00  0.00    +0.050 A 
ATOM      6  C   LIG    1       -0.331  -6.505   1.660  0.00  0.00    +0.030 A 
ATOM      7  C   LIG    1       -0.625  -5.156   1.735  0.00  0.00    +0.040 A 
ENDBRANCH   1   2
BRANCH   1   8
ATOM      8  N   LIG    1        1.034  -2.001   1.096  0.00  0.00    -0.640 N 
ATOM      9  H   LIG    1        1.508  -2.102   0.211  0.00  0.00    +0.430 HD
ATOM     10  H   LIG    1        1.630  -2.340   1.837  0.00  0.00    +0.440 HD
ATOM     11  H   LIG    1        0.822  -1.027   1.255  0.00  0.00    +0.440 HD
ENDBRANCH   1   8
BRANCH   1  12
ATOM     12  C   LIG    1       -1.046  -2.372  -0.142  0.00  0.00    +0.060 C 
BRANCH  12  13
ATOM     13  C   LIG    1       -1.480  -0.912  -0.001  0.00  0.00    -0.030 C 
BRANCH  13  15
ATOM     14  C   LIG    1       -1.214  -0.476  -2.447  0.00  0.00    +0.000 C 
ATOM     15  C   LIG    1       -2.199  -0.469  -1.277  0.00  0.00    +0.030 C 
ENDBRANCH  13  15
BRANCH  13  16
ATOM     16  C   LIG    1       -2.427  -0.775   1.192  0.00  0.00    +0.010 C 
ATOM     17  C   LIG    1       -2.746   0.704   1.423  0.00  0.00    +0.010 C 
ENDBRANCH  13  16
ENDBRANCH  12  13
ENDBRANCH   1  12
TORSDOF 6
ENDMDL
MODEL       28
REMARK  Name = ZINC000096528603
REMARK                            x       y       z     vdW  Elec       q    Type
REMARK                         _______ _______ _______ _____ _____    ______ ____
ROOT
ATOM      1  N   LIG    1       -2.834  -4.051  -0.239  0.00  0.00    -0.510 N 
ATOM      2  H   LIG    1       -2.322  -4.450   0.533  0.00  0.00    +0.430 HD
ATOM      3  H   LIG    1       -2.388  -4.307  -1.107  0.00  0.00    +0.430 HD
ENDROOT
BRANCH   1   4
ATOM      4  C   LIG    1       -2.851  -2.587  -0.110  0.00  0.00    +0.250 C 
BRANCH   4   5
ATOM      5  C   LIG    1       -1.416  -2.058  -0.121  0.00  0.00    +0.030 C 
BRANCH   5   6
ATOM      6  C   LIG    1       -1.433  -0.534   0.013  0.00  0.00    +0.030 C 
BRANCH   6   8
ATOM      7  C   LIG    1       -0.019   1.526   0.010  0.00  0.00    +0.030 C 
ATOM      8  C   LIG    1        0.002  -0.004   0.002  0.00  0.00    -0.030 C 
ATOM      9  C   LIG    1        0.742  -0.511   1.242  0.00  0.00    +0.020 C 
ENDBRANCH   6   8
ENDBRANCH   5   6
ENDBRANCH   4   5
ENDBRANCH   1   4
BRANCH   1  10
ATOM     10  C   LIG    1       -4.212  -4.559  -0.229  0.00  0.00    +0.250 C 
BRANCH  10  11
ATOM     11  C   LIG    1       -4.195  -6.083  -0.363  0.00  0.00    +0.030 C 
BRANCH  11  12
ATOM     12  C   LIG    1       -5.630  -6.613  -0.352  0.00  0.00    +0.030 C 
BRANCH  12  13
ATOM     13  C   LIG    1       -5.612  -8.137  -0.486  0.00  0.00    -0.020 C 
ATOM     14  C   LIG    1       -5.488  -8.872   0.859  0.00  0.00    +0.010 C 
ATOM     15  C   LIG    1       -6.505  -9.886   0.309  0.00  0.00    +0.000 C 
ATOM     16  C   LIG    1       -7.013  -8.761  -0.608  0.00  0.00    +0.010 C 
ENDBRANCH  12  13
ENDBRANCH  11  12
ENDBRANCH  10  11
ENDBRANCH   1  10
TORSDOF 8
ENDMDL
MODEL       29
REMARK  Name = ZINC000100224213
REMARK                            x       y       z     vdW  Elec       q    Type
REMARK                         _______ _______ _______ _____ _____    ______ ____
ROOT
ATOM      1  C   LIG    1       -0.016   1.351   0.009  0.00  0.00    +0.040 A 
ATOM      2  C   LIG    1       -1.232   2.035   0.031  0.00  0.00    +0.090 A 
ATOM      3  C   LIG    1       -1.244   3.414   0.038  0.00  0.00    +0.060 A 
ATOM      4  C   LIG    1       -0.054   4.119   0.025  0.00  0.00    +0.010 A 
ATOM      5  C   LIG    1        1.155   3.447   0.004  0.00  0.00    +0.050 A 
ATOM      6  C   LIG    1        1.180   2.067   0.002  0.00  0.00    +0.090 A 
ENDROOT
BRANCH   4   7
ATOM      7  C   LIG    1       -0.074   5.626   0.033  0.00  0.00    -0.040 C 
ATOM      8  C   LIG    1       -0.821   6.133  -1.202  0.00  0.00    +0.050 C 
ATOM      9  C   LIG    1        1.361   6.156   0.015  0.00  0.00    +0.040 C 
ATOM     10  C   LIG    1       -0.784   6.119   1.296  0.00  0.00    +0.050 C 
ENDBRANCH   4   7
BRANCH   1  12
ATOM     11  C   LIG    1        0.018  -1.140  -0.004  0.00  0.00    +0.910 C 
ATOM     12  N   LIG    1        0.002  -0.004   0.002  0.00  0.00    -0.360 NA
ENDBRANCH   1  12
TORSDOF 2
ENDMDL
MODEL       30
REMARK  Name = ZINC000055850297
REMARK                            x       y       z     vdW  Elec       q    Type
REMARK                         _______ _______ _______ _____ _____    ______ ____
ROOT
ATOM      1  C   LIG    1       -0.016   1.351   0.009  0.00  0.00    +0.050 A 
ATOM      2  C   LIG    1       -1.233   2.034   0.031  0.00  0.00    +0.090 A 
ATOM      3  C   LIG    1       -1.252   3.410   0.038  0.00  0.00    +0.070 A 
ATOM      4  C   LIG    1       -0.054   4.129   0.024  0.00  0.00    +0.030 A 
ATOM      5  C   LIG    1        1.160   3.443   0.003  0.00  0.00    -0.090 A 
ATOM      6  C   LIG    1        2.264   4.472  -0.008  0.00  0.00    +0.190 C 
ATOM      7  C   LIG    1        1.580   5.817   0.008  0.00  0.00    -0.070 A 
ATOM      8  C   LIG    1        2.071   7.105   0.006  0.00  0.00    +0.040 A 
ATOM      9  C   LIG    1        1.198   8.180   0.024  0.00  0.00    +0.060 A 
ATOM     10  C   LIG    1       -0.168   7.964   0.043  0.00  0.00    +0.020 A 
ATOM     11  C   LIG    1       -0.668   6.678   0.045  0.00  0.00    +0.060 A 
ATOM     12  C   LIG    1        0.206   5.590   0.027  0.00  0.00    -0.100 A 
ATOM     13  C   LIG    1        1.182   2.068   0.002  0.00  0.00    +0.110 A 
ENDROOT
BRANCH   1  15
ATOM     14  C   LIG    1        0.018  -1.140  -0.004  0.00  0.00    +0.910 C 
ATOM     15  N   LIG    1        0.002  -0.004   0.002  0.00  0.00    -0.360 NA
ENDBRANCH   1  15
TORSDOF 1
ENDMDL
MODEL       31
REMARK  Name = ZINC000072209806
REMARK                            x       y       z     vdW  Elec       q    Type
REMARK                         _______ _______ _______ _____ _____    ______ ____
ROOT
ATOM      1  C   LIG    1        2.192  -4.544  -3.791  0.00  0.00    +0.300 C 
ENDROOT
BRANCH   1   2
ATOM      2  C   LIG    1        2.105  -6.047  -3.862  0.00  0.00    -0.120 A 
ATOM      3  C   LIG    1        1.244  -6.750  -4.618  0.00  0.00    +0.030 A 
ATOM      4  C   LIG    1        1.510  -8.118  -4.378  0.00  0.00    -0.060 A 
ATOM      5  C   LIG    1        2.519  -8.168  -3.490  0.00  0.00    +0.040 A 
ATOM      6  C   LIG    1        3.144  -9.423  -2.936  0.00  0.00    +0.180 C 
ATOM      7  O   LIG    1        2.879  -6.911  -3.185  0.00  0.00    -0.180 OA
ENDBRANCH   1   2
BRANCH   1   8
ATOM      8  N   LIG    1        3.603  -4.136  -3.744  0.00  0.00    -0.640 N 
ATOM      9  H   LIG    1        3.660  -3.130  -3.696  0.00  0.00    +0.440 HD
ATOM     10  H   LIG    1        4.075  -4.462  -4.574  0.00  0.00    +0.440 HD
ATOM     11  H   LIG    1        4.041  -4.537  -2.928  0.00  0.00    +0.440 HD
ENDBRANCH   1   8
BRANCH   1  12
ATOM     12  C   LIG    1        1.476  -4.051  -2.532  0.00  0.00    +0.060 C 
BRANCH  12  13
ATOM     13  C   LIG    1        1.455  -2.521  -2.524  0.00  0.00    +0.010 C 
BRANCH  13  14
ATOM     14  C   LIG    1        0.739  -2.027  -1.265  0.00  0.00    +0.020 C 
BRANCH  14  15
ATOM     15  C   LIG    1        0.718  -0.497  -1.257  0.00  0.00    +0.000 C 
BRANCH  15  17
ATOM     16  C   LIG    1       -0.019   1.526   0.010  0.00  0.00    +0.010 C 
ATOM     17  C   LIG    1        0.002  -0.004   0.002  0.00  0.00    -0.010 C 
ENDBRANCH  15  17
ENDBRANCH  14  15
ENDBRANCH  13  14
ENDBRANCH  12  13
ENDBRANCH   1  12
TORSDOF 7
ENDMDL
MODEL       32
REMARK  Name = ZINC000072209805
REMARK                            x       y       z     vdW  Elec       q    Type
REMARK                         _______ _______ _______ _____ _____    ______ ____
ROOT
ATOM      1  C   LIG    1        2.192  -4.544  -3.791  0.00  0.00    +0.310 C 
ENDROOT
BRANCH   1   2
ATOM      2  C   LIG    1        2.321  -6.045  -3.740  0.00  0.00    -0.120 A 
ATOM      3  C   LIG    1        3.421  -6.728  -3.376  0.00  0.00    +0.030 A 
ATOM      4  C   LIG    1        3.101  -8.101  -3.473  0.00  0.00    -0.060 A 
ATOM      5  C   LIG    1        1.825  -8.176  -3.890  0.00  0.00    +0.040 A 
ATOM      6  C   LIG    1        1.050  -9.445  -4.135  0.00  0.00    +0.180 C 
ATOM      7  O   LIG    1        1.355  -6.927  -4.045  0.00  0.00    -0.180 OA
ENDBRANCH   1   2
BRANCH   1   8
ATOM      8  N   LIG    1        1.417  -4.159  -4.978  0.00  0.00    -0.640 N 
ATOM      9  H   LIG    1        1.889  -4.485  -5.808  0.00  0.00    +0.440 HD
ATOM     10  H   LIG    1        1.330  -3.155  -5.012  0.00  0.00    +0.440 HD
ATOM     11  H   LIG    1        0.498  -4.574  -4.929  0.00  0.00    +0.440 HD
ENDBRANCH   1   8
BRANCH   1  12
ATOM     12  C   LIG    1        1.476  -4.051  -2.532  0.00  0.00    +0.060 C 
BRANCH  12  13
ATOM     13  C   LIG    1        1.455  -2.521  -2.524  0.00  0.00    +0.010 C 
BRANCH  13  14
ATOM     14  C   LIG    1        0.739  -2.027  -1.265  0.00  0.00    +0.020 C 
BRANCH  14  15
ATOM     15  C   LIG    1        0.718  -0.497  -1.257  0.00  0.00    +0.000 C 
BRANCH  15  17
ATOM     16  C   LIG    1       -0.019   1.526   0.010  0.00  0.00    +0.010 C 
ATOM     17  C   LIG    1        0.002  -0.004   0.002  0.00  0.00    -0.010 C 
ENDBRANCH  15  17
ENDBRANCH  14  15
ENDBRANCH  13  14
ENDBRANCH  12  13
ENDBRANCH   1  12
TORSDOF 7
ENDMDL
MODEL       33
REMARK  Name = ZINC000394876482
REMARK                            x       y       z     vdW  Elec       q    Type
REMARK                         _______ _______ _______ _____ _____    ______ ____
ROOT
ATOM      1  C   LIG    1       -5.708  -0.788  -2.562  0.00  0.00    +0.050 C 
ENDROOT
BRANCH   1   2
ATOM      2  C   LIG    1       -6.410  -0.386  -3.861  0.00  0.00    +0.170 C 
ATOM      3  C   LIG    1       -7.801  -1.021  -3.906  0.00  0.00    +0.060 C 
ATOM      4  C   LIG    1       -8.499  -0.616  -5.207  0.00  0.00    +0.030 C 
ATOM      5  C   LIG    1       -8.556   0.913  -5.290  0.00  0.00    +0.050 C 
ATOM      6  C   LIG    1       -7.137   1.476  -5.194  0.00  0.00    +0.250 C 
ATOM      7  N   LIG    1       -6.534   1.076  -3.917  0.00  0.00    -0.510 N 
ATOM      8  H   LIG    1       -5.619   1.492  -3.833  0.00  0.00    +0.430 HD
ATOM      9  H   LIG    1       -7.117   1.393  -3.157  0.00  0.00    +0.430 HD
ENDBRANCH   1   2
BRANCH   1  10
ATOM     10  C   LIG    1       -4.272  -0.258  -2.573  0.00  0.00    +0.010 C 
BRANCH  10  11
ATOM     11  C   LIG    1       -3.571  -0.661  -1.275  0.00  0.00    +0.020 C 
BRANCH  11  12
ATOM     12  C   LIG    1       -2.135  -0.131  -1.286  0.00  0.00    +0.000 C 
BRANCH  12  13
ATOM     13  C   LIG    1       -1.433  -0.534   0.013  0.00  0.00    +0.000 C 
BRANCH  13  15
ATOM     14  C   LIG    1       -0.019   1.526   0.010  0.00  0.00    +0.010 C 
ATOM     15  C   LIG    1        0.002  -0.004   0.002  0.00  0.00    -0.030 C 
ATOM     16  C   LIG    1        0.742  -0.511   1.242  0.00  0.00    +0.030 C 
ENDBRANCH  13  15
ENDBRANCH  12  13
ENDBRANCH  11  12
ENDBRANCH  10  11
ENDBRANCH   1  10
TORSDOF 6
ENDMDL
MODEL       34
REMARK  Name = ZINC000394876481
REMARK                            x       y       z     vdW  Elec       q    Type
REMARK                         _______ _______ _______ _____ _____    ______ ____
ROOT
ATOM      1  C   LIG    1       -5.708  -0.788  -2.562  0.00  0.00    +0.050 C 
ENDROOT
BRANCH   1   2
ATOM      2  C   LIG    1       -6.410  -0.386  -3.861  0.00  0.00    +0.170 C 
ATOM      3  C   LIG    1       -7.880  -0.805  -3.797  0.00  0.00    +0.060 C 
ATOM      4  C   LIG    1       -8.578  -0.400  -5.098  0.00  0.00    +0.030 C 
ATOM      5  C   LIG    1       -7.844  -1.039  -6.280  0.00  0.00    +0.050 C 
ATOM      6  C   LIG    1       -6.375  -0.611  -6.253  0.00  0.00    +0.250 C 
ATOM      7  N   LIG    1       -5.758  -1.050  -4.995  0.00  0.00    -0.510 N 
ATOM      8  H   LIG    1       -5.861  -2.050  -4.903  0.00  0.00    +0.430 HD
ATOM      9  H   LIG    1       -4.777  -0.814  -5.003  0.00  0.00    +0.430 HD
ENDBRANCH   1   2
BRANCH   1  10
ATOM     10  C   LIG    1       -4.272  -0.258  -2.573  0.00  0.00    +0.010 C 
BRANCH  10  11
ATOM     11  C   LIG    1       -3.571  -0.661  -1.275  0.00  0.00    +0.020 C 
BRANCH  11  12
ATOM     12  C   LIG    1       -2.135  -0.131  -1.286  0.00  0.00    +0.010 C 
BRANCH  12  13
ATOM     13  C   LIG    1       -1.433  -0.534   0.013  0.00  0.00    +0.000 C 
BRANCH  13  15
ATOM     14  C   LIG    1       -0.019   1.526   0.010  0.00  0.00    +0.020 C 
ATOM     15  C   LIG    1        0.002  -0.004   0.002  0.00  0.00    -0.030 C 
ATOM     16  C   LIG    1        0.742  -0.511   1.242  0.00  0.00    +0.020 C 
ENDBRANCH  13  15
ENDBRANCH  12  13
ENDBRANCH  11  12
ENDBRANCH  10  11
ENDBRANCH   1  10
TORSDOF 6
ENDMDL
MODEL       35
REMARK  Name = ZINC000085392881
REMARK                            x       y       z     vdW  Elec       q    Type
REMARK                         _______ _______ _______ _____ _____    ______ ____
ROOT
ATOM      1  C   LIG    1        1.493  -3.996   2.415  0.00  0.00    +0.260 C 
ENDROOT
BRANCH   1   2
ATOM      2  C   LIG    1        2.233  -4.503   3.655  0.00  0.00    -0.040 C 
ATOM      3  C   LIG    1        1.329  -4.670   4.887  0.00  0.00    +0.030 C 
ATOM      4  C   LIG    1        2.106  -5.962   5.186  0.00  0.00    -0.010 C 
ATOM      5  C   LIG    1        2.417  -6.030   3.681  0.00  0.00    +0.050 C 
BRANCH   4   6
ATOM      6  C   LIG    1        1.223  -7.109   5.681  0.00  0.00    +0.020 C 
BRANCH   6   7
ATOM      7  C   LIG    1        2.102  -8.300   6.066  0.00  0.00    +0.000 C 
BRANCH   7   8
ATOM      8  C   LIG    1        1.218  -9.447   6.561  0.00  0.00    -0.010 C 
ATOM      9  C   LIG    1        2.097 -10.639   6.946  0.00  0.00    +0.000 C 
ENDBRANCH   7   8
ENDBRANCH   6   7
ENDBRANCH   4   6
ENDBRANCH   1   2
BRANCH   1  10
ATOM     10  N   LIG    1        1.473  -2.527   2.423  0.00  0.00    -0.510 N 
ATOM     11  H   LIG    1        1.001  -2.202   3.253  0.00  0.00    +0.430 HD
ATOM     12  H   LIG    1        2.420  -2.178   2.416  0.00  0.00    +0.430 HD
BRANCH  10  13
ATOM     13  C   LIG    1        0.763  -2.041   1.233  0.00  0.00    +0.250 C 
BRANCH  13  14
ATOM     14  C   LIG    1        0.742  -0.511   1.242  0.00  0.00    +0.030 C 
BRANCH  14  16
ATOM     15  C   LIG    1       -0.019   1.526   0.010  0.00  0.00    +0.030 C 
ATOM     16  C   LIG    1        0.002  -0.004   0.002  0.00  0.00    +0.020 C 
ENDBRANCH  14  16
ENDBRANCH  13  14
ENDBRANCH  10  13
ENDBRANCH   1  10
TORSDOF 8
ENDMDL
MODEL       36
REMARK  Name = ZINC000095697981
REMARK                            x       y       z     vdW  Elec       q    Type
REMARK                         _______ _______ _______ _____ _____    ______ ____
ROOT
ATOM      1  C   LIG    1       -0.016   1.351   0.009  0.00  0.00    +0.060 A 
ATOM      2  C   LIG    1       -1.230   2.035   0.031  0.00  0.00    +0.090 A 
ATOM      3  C   LIG    1       -1.243   3.415   0.039  0.00  0.00    +0.060 A 
ATOM      4  C   LIG    1       -0.056   4.128   0.026  0.00  0.00    +0.120 A 
ATOM      5  C   LIG    1        1.155   3.466   0.005  0.00  0.00    +0.060 A 
ATOM      6  C   LIG    1        1.189   2.074   0.002  0.00  0.00    +0.020 A 
ENDROOT
BRANCH   6   7
ATOM      7  C   LIG    1        2.487   1.360  -0.020  0.00  0.00    -0.100 A 
ATOM      8  C   LIG    1        2.739   0.338   0.894  0.00  0.00    -0.010 A 
ATOM      9  C   LIG    1        3.950  -0.324   0.869  0.00  0.00    +0.030 A 
ATOM     10  C   LIG    1        4.912   0.025  -0.062  0.00  0.00    +0.050 A 
ATOM     11  C   LIG    1        4.668   1.038  -0.971  0.00  0.00    +0.030 A 
ATOM     12  C   LIG    1        3.459   1.703  -0.959  0.00  0.00    +0.040 A 
ENDBRANCH   6   7
BRANCH   1  14
ATOM     13  C   LIG    1        0.018  -1.140  -0.004  0.00  0.00    +0.910 C 
ATOM     14  N   LIG    1        0.002  -0.004   0.002  0.00  0.00    -0.350 NA
ENDBRANCH   1  14
TORSDOF 2
ENDMDL
MODEL       37
REMARK  Name = ZINC000095697902
REMARK                            x       y       z     vdW  Elec       q    Type
REMARK                         _______ _______ _______ _____ _____    ______ ____
ROOT
ATOM      1  C   LIG    1       -0.016   1.351   0.009  0.00  0.00    +0.050 A 
ATOM      2  C   LIG    1       -1.232   2.034   0.031  0.00  0.00    -0.020 A 
ATOM      3  C   LIG    1       -1.244   3.414   0.038  0.00  0.00    +0.050 A 
ATOM      4  C   LIG    1       -0.054   4.119   0.025  0.00  0.00    +0.120 A 
ATOM      5  C   LIG    1        1.155   3.447   0.004  0.00  0.00    +0.050 A 
ATOM      6  C   LIG    1       -2.529   1.268   0.046  0.00  0.00    +0.120 C 
ATOM      7  C   LIG    1        1.181   2.068   0.002  0.00  0.00    -0.010 A 
ENDROOT
BRANCH   7   8
ATOM      8  C   LIG    1        2.498   1.337  -0.020  0.00  0.00    -0.010 C 
ATOM      9  C   LIG    1        3.314   1.719   1.216  0.00  0.00    +0.060 C 
ATOM     10  C   LIG    1        3.273   1.721  -1.282  0.00  0.00    +0.060 C 
ENDBRANCH   7   8
BRANCH   1  12
ATOM     11  C   LIG    1        0.018  -1.140  -0.004  0.00  0.00    +0.900 C 
ATOM     12  N   LIG    1        0.002  -0.004   0.002  0.00  0.00    -0.350 NA
ENDBRANCH   1  12
TORSDOF 2
ENDMDL
MODEL       38
REMARK  Name = ZINC000104462019
REMARK                            x       y       z     vdW  Elec       q    Type
REMARK                         _______ _______ _______ _____ _____    ______ ____
ROOT
ATOM      1  C   LIG    1       -0.016   1.351   0.009  0.00  0.00    +0.070 A 
ATOM      2  C   LIG    1       -1.233   2.035   0.031  0.00  0.00    +0.040 A 
ATOM      3  C   LIG    1       -1.246   3.416   0.039  0.00  0.00    +0.060 A 
ATOM      4  C   LIG    1       -0.054   4.122   0.025  0.00  0.00    +0.210 A 
ATOM      5  C   LIG    1        1.157   3.448   0.004  0.00  0.00    +0.060 A 
ATOM      6  F   LIG    1       -0.072   5.473   0.033  0.00  0.00    -0.090 F 
ATOM      7 CL   LIG    1       -2.727   1.151   0.047  0.00  0.00    +0.010 Cl
ATOM      8  C   LIG    1        1.182   2.068   0.002  0.00  0.00    +0.040 A 
ATOM      9 CL   LIG    1        2.699   1.225  -0.025  0.00  0.00    +0.010 Cl
ENDROOT
BRANCH   1  11
ATOM     10  C   LIG    1        0.018  -1.140  -0.004  0.00  0.00    +0.960 C 
ATOM     11  N   LIG    1        0.002  -0.004   0.002  0.00  0.00    -0.370 NA
ENDBRANCH   1  11
TORSDOF 1
ENDMDL
MODEL       39
REMARK  Name = ZINC000113305947
REMARK                            x       y       z     vdW  Elec       q    Type
REMARK                         _______ _______ _______ _____ _____    ______ ____
ROOT
ATOM      1  C   LIG    1       -0.018   1.503   0.010  0.00  0.00    +0.160 C 
ATOM      2  C   LIG    1        0.002  -0.004   0.002  0.00  0.00    +0.050 A 
ATOM      3  C   LIG    1        0.006  -0.688  -1.195  0.00  0.00    +0.090 A 
ATOM      4  C   LIG    1        0.025  -2.074  -1.205  0.00  0.00    +0.070 A 
ATOM      5  C   LIG    1        0.041  -2.780  -0.015  0.00  0.00    +0.090 A 
ATOM      6  C   LIG    1        0.038  -2.108   1.191  0.00  0.00    +0.050 A 
ATOM      7 CL   LIG    1        0.058  -2.995   2.683  0.00  0.00    +0.020 Cl
ATOM      8 CL   LIG    1        0.030  -2.926  -2.717  0.00  0.00    +0.030 Cl
ATOM      9  C   LIG    1        0.023  -0.710   1.207  0.00  0.00    -0.020 A 
ENDROOT
BRANCH   9  10
ATOM     10  N   LIG    1        0.019  -0.043   2.387  0.00  0.00    +0.150 NA
ATOM     11  N   LIG    1        0.017   0.465   3.286  0.00  0.00    +0.320 NA
ENDBRANCH   9  10
TORSDOF 1
ENDMDL
MODEL       40
REMARK  Name = ZINC000128035680
REMARK                            x       y       z     vdW  Elec       q    Type
REMARK                         _______ _______ _______ _____ _____    ______ ____
ROOT
ATOM      1  C   LIG    1       -3.089  -2.611  -0.001  0.00  0.00    +0.280 C 
ENDROOT
BRANCH   1   2
ATOM      2  C   LIG    1       -3.165  -4.103   0.203  0.00  0.00    -0.280 A 
ATOM      3  C   LIG    1       -3.510  -4.707   1.341  0.00  0.00    +0.090 A 
ATOM      4  C   LIG    1       -3.510  -6.090   1.290  0.00  0.00    +0.020 A 
ATOM      5  C   LIG    1       -3.165  -6.609   0.111  0.00  0.00    +0.020 A 
ATOM      6  S   LIG    1       -2.820  -5.312  -1.026  0.00  0.00    +0.110 S 
ENDBRANCH   1   2
BRANCH   1   7
ATOM      7  N   LIG    1       -3.626  -2.270  -1.325  0.00  0.00    -0.640 N 
ATOM      8  H   LIG    1       -3.116  -2.773  -2.035  0.00  0.00    +0.430 HD
ATOM      9  H   LIG    1       -3.530  -1.278  -1.481  0.00  0.00    +0.440 HD
ATOM     10  H   LIG    1       -4.602  -2.523  -1.368  0.00  0.00    +0.440 HD
ENDBRANCH   1   7
BRANCH   1  11
ATOM     11  C   LIG    1       -1.631  -2.158   0.090  0.00  0.00    +0.080 C 
BRANCH  11  12
ATOM     12  C   LIG    1       -1.567  -0.630   0.026  0.00  0.00    -0.030 C 
BRANCH  12  14
ATOM     13  C   LIG    1       -2.297   1.486   1.136  0.00  0.00    +0.010 C 
ATOM     14  C   LIG    1       -2.250  -0.039   1.261  0.00  0.00    +0.010 C 
ENDBRANCH  12  14
BRANCH  12  15
ATOM     15  C   LIG    1       -0.105  -0.182  -0.012  0.00  0.00    +0.030 C 
ATOM     16  C   LIG    1        0.540  -0.653  -1.317  0.00  0.00    +0.020 C 
ENDBRANCH  12  15
ENDBRANCH  11  12
ENDBRANCH   1  11
TORSDOF 6
ENDMDL
MODEL       41
REMARK  Name = ZINC000128035447
REMARK                            x       y       z     vdW  Elec       q    Type
REMARK                         _______ _______ _______ _____ _____    ______ ____
ROOT
ATOM      1  C   LIG    1       -2.874  -2.587  -0.350  0.00  0.00    +0.280 C 
ENDROOT
BRANCH   1   2
ATOM      2  C   LIG    1       -2.842  -4.043  -0.734  0.00  0.00    -0.280 A 
ATOM      3  C   LIG    1       -2.992  -4.516  -1.972  0.00  0.00    +0.090 A 
ATOM      4  C   LIG    1       -2.924  -5.894  -2.083  0.00  0.00    +0.020 A 
ATOM      5  C   LIG    1       -2.720  -6.541  -0.935  0.00  0.00    +0.020 A 
ATOM      6  S   LIG    1       -2.593  -5.381   0.381  0.00  0.00    +0.110 S 
ENDBRANCH   1   2
BRANCH   1   7
ATOM      7  N   LIG    1       -3.596  -2.430   0.919  0.00  0.00    -0.640 N 
ATOM      8  H   LIG    1       -3.127  -2.958   1.640  0.00  0.00    +0.430 HD
ATOM      9  H   LIG    1       -4.540  -2.771   0.814  0.00  0.00    +0.440 HD
ATOM     10  H   LIG    1       -3.617  -1.455   1.177  0.00  0.00    +0.440 HD
ENDBRANCH   1   7
BRANCH   1  11
ATOM     11  C   LIG    1       -1.442  -2.070  -0.190  0.00  0.00    +0.070 C 
BRANCH  11  12
ATOM     12  C   LIG    1       -1.473  -0.571   0.116  0.00  0.00    -0.040 C 
BRANCH  12  14
ATOM     13  C   LIG    1       -0.097   1.388   0.833  0.00  0.00    +0.010 C 
ATOM     14  C   LIG    1       -0.053  -0.081   0.406  0.00  0.00    +0.030 C 
ENDBRANCH  12  14
BRANCH  12  15
ATOM     15  C   LIG    1       -2.036   0.184  -1.089  0.00  0.00    +0.010 C 
ATOM     16  C   LIG    1       -1.160  -0.085  -2.315  0.00  0.00    +0.020 C 
ENDBRANCH  12  15
ENDBRANCH  11  12
ENDBRANCH   1  11
TORSDOF 6
ENDMDL
MODEL       42
REMARK  Name = ZINC000128040644
REMARK                            x       y       z     vdW  Elec       q    Type
REMARK                         _______ _______ _______ _____ _____    ______ ____
ROOT
ATOM      1  C   LIG    1       -2.874  -2.587  -0.350  0.00  0.00    +0.250 C 
ENDROOT
BRANCH   1   2
ATOM      2  C   LIG    1       -2.841  -4.044  -0.734  0.00  0.00    -0.150 A 
ATOM      3  C   LIG    1       -2.655  -5.017   0.159  0.00  0.00    -0.060 A 
ATOM      4  S   LIG    1       -2.678  -6.576  -0.654  0.00  0.00    +0.200 S 
ATOM      5  C   LIG    1       -2.948  -5.796  -2.207  0.00  0.00    -0.020 A 
ATOM      6  C   LIG    1       -3.009  -4.474  -2.039  0.00  0.00    +0.020 A 
ENDBRANCH   1   2
BRANCH   1   7
ATOM      7  N   LIG    1       -3.596  -2.431   0.920  0.00  0.00    -0.640 N 
ATOM      8  H   LIG    1       -3.127  -2.958   1.641  0.00  0.00    +0.430 HD
ATOM      9  H   LIG    1       -4.540  -2.771   0.814  0.00  0.00    +0.440 HD
ATOM     10  H   LIG    1       -3.617  -1.455   1.177  0.00  0.00    +0.440 HD
ENDBRANCH   1   7
BRANCH   1  11
ATOM     11  C   LIG    1       -1.442  -2.070  -0.189  0.00  0.00    +0.070 C 
BRANCH  11  12
ATOM     12  C   LIG    1       -1.473  -0.571   0.116  0.00  0.00    -0.040 C 
BRANCH  12  14
ATOM     13  C   LIG    1       -0.097   1.388   0.833  0.00  0.00    +0.010 C 
ATOM     14  C   LIG    1       -0.053  -0.081   0.406  0.00  0.00    +0.030 C 
ENDBRANCH  12  14
BRANCH  12  15
ATOM     15  C   LIG    1       -2.036   0.184  -1.090  0.00  0.00    +0.010 C 
ATOM     16  C   LIG    1       -1.160  -0.085  -2.315  0.00  0.00    +0.020 C 
ENDBRANCH  12  15
ENDBRANCH  11  12
ENDBRANCH   1  11
TORSDOF 6
ENDMDL
MODEL       43
REMARK  Name = ZINC000128040879
REMARK                            x       y       z     vdW  Elec       q    Type
REMARK                         _______ _______ _______ _____ _____    ______ ____
ROOT
ATOM      1  C   LIG    1       -3.115  -2.621   0.006  0.00  0.00    +0.250 C 
ENDROOT
BRANCH   1   2
ATOM      2  C   LIG    1       -3.205  -4.112   0.204  0.00  0.00    -0.150 A 
ATOM      3  C   LIG    1       -2.942  -4.983  -0.771  0.00  0.00    -0.060 A 
ATOM      4  S   LIG    1       -3.152  -6.622  -0.171  0.00  0.00    +0.200 S 
ATOM      5  C   LIG    1       -3.598  -6.015   1.419  0.00  0.00    -0.020 A 
ATOM      6  C   LIG    1       -3.561  -4.682   1.415  0.00  0.00    +0.020 A 
ENDBRANCH   1   2
BRANCH   1   7
ATOM      7  N   LIG    1       -3.658  -2.268  -1.312  0.00  0.00    -0.640 N 
ATOM      8  H   LIG    1       -3.155  -2.770  -2.029  0.00  0.00    +0.430 HD
ATOM      9  H   LIG    1       -3.558  -1.276  -1.463  0.00  0.00    +0.440 HD
ATOM     10  H   LIG    1       -4.635  -2.518  -1.351  0.00  0.00    +0.440 HD
ENDBRANCH   1   7
BRANCH   1  11
ATOM     11  C   LIG    1       -1.651  -2.183   0.088  0.00  0.00    +0.070 C 
BRANCH  11  12
ATOM     12  C   LIG    1       -1.571  -0.656   0.030  0.00  0.00    -0.040 C 
BRANCH  12  14
ATOM     13  C   LIG    1       -2.269   1.462   1.157  0.00  0.00    +0.010 C 
ATOM     14  C   LIG    1       -2.237  -0.064   1.273  0.00  0.00    +0.010 C 
ENDBRANCH  12  14
BRANCH  12  15
ATOM     15  C   LIG    1       -0.104  -0.224  -0.018  0.00  0.00    +0.020 C 
ATOM     16  C   LIG    1        0.524  -0.695  -1.331  0.00  0.00    +0.000 C 
ENDBRANCH  12  15
ENDBRANCH  11  12
ENDBRANCH   1  11
TORSDOF 6
ENDMDL
MODEL       44
REMARK  Name = ZINC000199631060
REMARK                            x       y       z     vdW  Elec       q    Type
REMARK                         _______ _______ _______ _____ _____    ______ ____
ROOT
ATOM      1  C   LIG    1        2.264  -4.584   3.704  0.00  0.00    +0.060 C 
ATOM      2  C   LIG    1        3.699  -4.055   3.693  0.00  0.00    +0.090 C 
ENDROOT
BRANCH   1   3
ATOM      3  N   LIG    1        1.576  -4.111   4.912  0.00  0.00    -0.640 N 
ATOM      4  H   LIG    1        1.562  -3.102   4.918  0.00  0.00    +0.430 HD
ATOM      5  H   LIG    1        2.064  -4.445   5.730  0.00  0.00    +0.430 HD
ATOM      6  H   LIG    1        0.629  -4.460   4.920  0.00  0.00    +0.430 HD
ENDBRANCH   1   3
BRANCH   1   7
ATOM      7  C   LIG    1        1.524  -4.077   2.464  0.00  0.00    +0.060 C 
BRANCH   7   8
ATOM      8  C   LIG    1        1.503  -2.548   2.473  0.00  0.00    -0.000 C 
BRANCH   8   9
ATOM      9  C   LIG    1        0.763  -2.041   1.233  0.00  0.00    +0.020 C 
BRANCH   9  10
ATOM     10  C   LIG    1        0.742  -0.511   1.242  0.00  0.00    +0.000 C 
BRANCH  10  12
ATOM     11  C   LIG    1       -0.019   1.526   0.010  0.00  0.00    +0.010 C 
ATOM     12  C   LIG    1        0.002  -0.004   0.002  0.00  0.00    -0.010 C 
ENDBRANCH  10  12
ENDBRANCH   9  10
ENDBRANCH   8   9
ENDBRANCH   7   8
ENDBRANCH   1   7
BRANCH   1  13
ATOM     13  C   LIG    1        2.284  -6.114   3.695  0.00  0.00    +0.060 C 
BRANCH  13  14
ATOM     14  C   LIG    1        2.913  -6.623   4.994  0.00  0.00    -0.000 C 
BRANCH  14  15
ATOM     15  C   LIG    1        2.934  -8.153   4.986  0.00  0.00    +0.010 C 
ATOM     16  C   LIG    1        3.563  -8.661   6.284  0.00  0.00    +0.010 C 
ENDBRANCH  14  15
ENDBRANCH  13  14
ENDBRANCH   1  13
TORSDOF 9
ENDMDL
MODEL       45
REMARK  Name = ZINC000199631045
REMARK                            x       y       z     vdW  Elec       q    Type
REMARK                         _______ _______ _______ _____ _____    ______ ____
ROOT
ATOM      1  C   LIG    1        2.264  -4.584   3.704  0.00  0.00    +0.060 C 
ATOM      2  C   LIG    1        1.480  -4.197   4.960  0.00  0.00    +0.090 C 
ENDROOT
BRANCH   1   3
ATOM      3  N   LIG    1        3.602  -3.981   3.756  0.00  0.00    -0.640 N 
ATOM      4  H   LIG    1        4.119  -4.236   2.928  0.00  0.00    +0.430 HD
ATOM      5  H   LIG    1        4.090  -4.315   4.574  0.00  0.00    +0.430 HD
ATOM      6  H   LIG    1        3.516  -2.976   3.803  0.00  0.00    +0.430 HD
ENDBRANCH   1   3
BRANCH   1   7
ATOM      7  C   LIG    1        1.524  -4.077   2.464  0.00  0.00    +0.060 C 
BRANCH   7   8
ATOM      8  C   LIG    1        1.503  -2.548   2.473  0.00  0.00    -0.000 C 
BRANCH   8   9
ATOM      9  C   LIG    1        0.763  -2.041   1.233  0.00  0.00    +0.020 C 
BRANCH   9  10
ATOM     10  C   LIG    1        0.742  -0.511   1.242  0.00  0.00    +0.000 C 
BRANCH  10  12
ATOM     11  C   LIG    1       -0.019   1.526   0.010  0.00  0.00    +0.000 C 
ATOM     12  C   LIG    1        0.002  -0.004   0.002  0.00  0.00    -0.010 C 
ENDBRANCH  10  12
ENDBRANCH   9  10
ENDBRANCH   8   9
ENDBRANCH   7   8
ENDBRANCH   1   7
BRANCH   1  13
ATOM     13  C   LIG    1        2.393  -6.107   3.633  0.00  0.00    +0.060 C 
BRANCH  13  14
ATOM     14  C   LIG    1        3.133  -6.614   4.873  0.00  0.00    -0.000 C 
BRANCH  14  15
ATOM     15  C   LIG    1        3.263  -8.137   4.802  0.00  0.00    +0.010 C 
ATOM     16  C   LIG    1        4.003  -8.644   6.041  0.00  0.00    +0.010 C 
ENDBRANCH  14  15
ENDBRANCH  13  14
ENDBRANCH   1  13
TORSDOF 9
ENDMDL
MODEL       46
REMARK  Name = ZINC000001730873
REMARK                            x       y       z     vdW  Elec       q    Type
REMARK                         _______ _______ _______ _____ _____    ______ ____
ROOT
ATOM      1  C   LIG    1       -2.848  -2.593   0.015  0.00  0.00    -0.050 C 
ATOM      2  C   LIG    1       -3.564  -2.100   1.274  0.00  0.00    +0.040 C 
ENDROOT
BRANCH   1   3
ATOM      3  C   LIG    1       -1.413  -2.063   0.004  0.00  0.00    +0.020 C 
BRANCH   3   4
ATOM      4  C   LIG    1       -1.433  -0.534   0.013  0.00  0.00    +0.010 C 
BRANCH   4   6
ATOM      5  C   LIG    1       -0.019   1.526   0.010  0.00  0.00    +0.010 C 
ATOM      6  C   LIG    1        0.002  -0.004   0.002  0.00  0.00    +0.000 C 
ENDBRANCH   4   6
ENDBRANCH   3   4
ENDBRANCH   1   3
BRANCH   1   7
ATOM      7  C   LIG    1       -2.827  -4.123   0.007  0.00  0.00    +0.020 C 
BRANCH   7   8
ATOM      8  C   LIG    1       -4.263  -4.652   0.018  0.00  0.00    +0.010 C 
BRANCH   8   9
ATOM      9  C   LIG    1       -4.242  -6.182   0.009  0.00  0.00    +0.000 C 
ATOM     10  C   LIG    1       -5.677  -6.712   0.020  0.00  0.00    +0.010 C 
ENDBRANCH   8   9
ENDBRANCH   7   8
ENDBRANCH   1   7
BRANCH   1  11
ATOM     11  C   LIG    1       -3.588  -2.086  -1.224  0.00  0.00    +0.030 C 
BRANCH  11  12
ATOM     12  C   LIG    1       -2.872  -2.580  -2.483  0.00  0.00    +0.260 C 
BRANCH  12  13
ATOM     13  N   LIG    1       -3.582  -2.093  -3.673  0.00  0.00    -0.640 N 
ATOM     14  H   LIG    1       -3.110  -2.418  -4.503  0.00  0.00    +0.440 HD
ATOM     15  H   LIG    1       -3.596  -1.084  -3.668  0.00  0.00    +0.430 HD
ATOM     16  H   LIG    1       -4.529  -2.442  -3.666  0.00  0.00    +0.430 HD
ENDBRANCH  12  13
ENDBRANCH  11  12
ENDBRANCH   1  11
TORSDOF 9
ENDMDL
MODEL       47
REMARK  Name = ZINC000053818470
REMARK                            x       y       z     vdW  Elec       q    Type
REMARK                         _______ _______ _______ _____ _____    ______ ____
ROOT
ATOM      1  C   LIG    1        1.476  -4.051  -2.532  0.00  0.00    +0.240 C 
ENDROOT
BRANCH   1   2
ATOM      2  C   LIG    1        2.071  -4.538  -3.829  0.00  0.00    -0.140 A 
ATOM      3  C   LIG    1        3.443  -4.558  -3.995  0.00  0.00    -0.010 A 
ATOM      4  C   LIG    1        3.989  -5.005  -5.184  0.00  0.00    +0.040 A 
ATOM      5  C   LIG    1        3.162  -5.432  -6.206  0.00  0.00    +0.050 A 
ATOM      6  C   LIG    1        1.790  -5.413  -6.039  0.00  0.00    -0.070 A 
ATOM      7  C   LIG    1        0.889  -5.878  -7.154  0.00  0.00    +0.100 C 
ATOM      8  C   LIG    1        1.244  -4.970  -4.849  0.00  0.00    +0.040 A 
ENDBRANCH   1   2
BRANCH   1   9
ATOM      9  N   LIG    1        2.288  -4.535  -1.408  0.00  0.00    -0.640 N 
ATOM     10  H   LIG    1        3.230  -4.186  -1.498  0.00  0.00    +0.430 HD
ATOM     11  H   LIG    1        2.301  -5.544  -1.414  0.00  0.00    +0.440 HD
ATOM     12  H   LIG    1        1.889  -4.209  -0.540  0.00  0.00    +0.440 HD
ENDBRANCH   1   9
BRANCH   1  13
ATOM     13  C   LIG    1        1.455  -2.521  -2.524  0.00  0.00    +0.060 C 
BRANCH  13  14
ATOM     14  C   LIG    1        0.739  -2.027  -1.265  0.00  0.00    -0.000 C 
BRANCH  14  15
ATOM     15  C   LIG    1        0.718  -0.497  -1.257  0.00  0.00    +0.020 C 
BRANCH  15  17
ATOM     16  C   LIG    1       -0.019   1.526   0.010  0.00  0.00    +0.020 C 
ATOM     17  C   LIG    1        0.002  -0.004   0.002  0.00  0.00    -0.010 C 
ENDBRANCH  15  17
ENDBRANCH  14  15
ENDBRANCH  13  14
ENDBRANCH   1  13
TORSDOF 6
ENDMDL
MODEL       48
REMARK  Name = ZINC000019804117
REMARK                            x       y       z     vdW  Elec       q    Type
REMARK                         _______ _______ _______ _____ _____    ______ ____
ROOT
ATOM      1  C   LIG    1        1.455  -2.521  -2.524  0.00  0.00    +0.240 C 
ENDROOT
BRANCH   1   2
ATOM      2  C   LIG    1        1.369  -4.024  -2.595  0.00  0.00    -0.150 A 
ATOM      3  C   LIG    1        2.225  -4.801  -1.838  0.00  0.00    +0.020 A 
ATOM      4  C   LIG    1        2.146  -6.180  -1.902  0.00  0.00    +0.050 A 
ATOM      5  C   LIG    1        1.210  -6.781  -2.724  0.00  0.00    -0.010 A 
ATOM      6  C   LIG    1        0.353  -6.002  -3.482  0.00  0.00    +0.050 A 
ATOM      7 CL   LIG    1        1.110  -8.512  -2.805  0.00  0.00    -0.040 Cl
ATOM      8  C   LIG    1        0.429  -4.624  -3.412  0.00  0.00    +0.070 A 
ENDBRANCH   1   2
BRANCH   1   9
ATOM      9  N   LIG    1        2.866  -2.113  -2.476  0.00  0.00    -0.640 N 
ATOM     10  H   LIG    1        3.338  -2.439  -3.307  0.00  0.00    +0.440 HD
ATOM     11  H   LIG    1        3.304  -2.514  -1.661  0.00  0.00    +0.430 HD
ATOM     12  H   LIG    1        2.924  -1.107  -2.429  0.00  0.00    +0.440 HD
ENDBRANCH   1   9
BRANCH   1  13
ATOM     13  C   LIG    1        0.739  -2.027  -1.265  0.00  0.00    +0.060 C 
BRANCH  13  14
ATOM     14  C   LIG    1        0.718  -0.497  -1.257  0.00  0.00    -0.000 C 
BRANCH  14  16
ATOM     15  C   LIG    1       -0.019   1.526   0.010  0.00  0.00    +0.020 C 
ATOM     16  C   LIG    1        0.002  -0.004   0.002  0.00  0.00    +0.010 C 
ENDBRANCH  14  16
ENDBRANCH  13  14
ENDBRANCH   1  13
TORSDOF 5
ENDMDL
MODEL       49
REMARK  Name = ZINC000015442170
REMARK                            x       y       z     vdW  Elec       q    Type
REMARK                         _______ _______ _______ _____ _____    ______ ____
ROOT
ATOM      1  C   LIG    1        1.250  -3.993  -2.644  0.00  0.00    +0.050 C 
ENDROOT
BRANCH   1   2
ATOM      2  C   LIG    1       -0.159  -4.393  -3.087  0.00  0.00    +0.160 C 
ATOM      3  C   LIG    1       -0.293  -5.917  -3.045  0.00  0.00    +0.060 C 
ATOM      4  C   LIG    1       -1.704  -6.312  -3.488  0.00  0.00    +0.030 C 
ATOM      5  C   LIG    1       -1.967  -5.745  -4.886  0.00  0.00    +0.050 C 
ATOM      6  C   LIG    1       -1.772  -4.227  -4.859  0.00  0.00    +0.250 C 
ATOM      7  N   LIG    1       -0.396  -3.916  -4.454  0.00  0.00    -0.510 N 
ATOM      8  H   LIG    1        0.250  -4.368  -5.083  0.00  0.00    +0.420 HD
ATOM      9  H   LIG    1       -0.254  -2.917  -4.489  0.00  0.00    +0.430 HD
ENDBRANCH   1   2
BRANCH   1  10
ATOM     10  C   LIG    1        1.341  -2.469  -2.549  0.00  0.00    -0.040 C 
BRANCH  10  11
ATOM     11  C   LIG    1        2.782  -2.063  -2.231  0.00  0.00    +0.030 C 
ATOM     12  C   LIG    1        3.688  -2.435  -3.406  0.00  0.00    +0.000 C 
ENDBRANCH  10  11
BRANCH  10  13
ATOM     13  C   LIG    1        0.414  -1.971  -1.439  0.00  0.00    +0.020 C 
BRANCH  13  14
ATOM     14  C   LIG    1        0.410  -0.441  -1.426  0.00  0.00    +0.010 C 
BRANCH  14  16
ATOM     15  C   LIG    1       -0.521   1.587  -0.303  0.00  0.00    +0.010 C 
ATOM     16  C   LIG    1       -0.518   0.058  -0.316  0.00  0.00    -0.010 C 
ENDBRANCH  14  16
ENDBRANCH  13  14
ENDBRANCH  10  13
ENDBRANCH   1  10
TORSDOF 6
ENDMDL
MODEL       50
REMARK  Name = ZINC000015442175
REMARK                            x       y       z     vdW  Elec       q    Type
REMARK                         _______ _______ _______ _____ _____    ______ ____
ROOT
ATOM      1  C   LIG    1        1.473  -3.844  -2.357  0.00  0.00    +0.060 C 
ENDROOT
BRANCH   1   2
ATOM      2  C   LIG    1        2.567  -4.244  -1.365  0.00  0.00    +0.160 C 
ATOM      3  C   LIG    1        2.555  -5.762  -1.178  0.00  0.00    +0.060 C 
ATOM      4  C   LIG    1        3.652  -6.157  -0.185  0.00  0.00    +0.030 C 
ATOM      5  C   LIG    1        5.001  -5.647  -0.699  0.00  0.00    +0.050 C 
ATOM      6  C   LIG    1        4.922  -4.132  -0.904  0.00  0.00    +0.250 C 
ATOM      7  N   LIG    1        3.874  -3.822  -1.884  0.00  0.00    -0.510 N 
ATOM      8  H   LIG    1        3.860  -2.828  -2.056  0.00  0.00    +0.430 HD
ATOM      9  H   LIG    1        4.067  -4.309  -2.746  0.00  0.00    +0.430 HD
ENDBRANCH   1   2
BRANCH   1  10
ATOM     10  C   LIG    1        1.391  -2.318  -2.439  0.00  0.00    -0.040 C 
BRANCH  10  11
ATOM     11  C   LIG    1        0.393  -1.919  -3.527  0.00  0.00    +0.030 C 
ATOM     12  C   LIG    1        0.929  -2.349  -4.894  0.00  0.00    +0.000 C 
ENDBRANCH  10  11
BRANCH  10  13
ATOM     13  C   LIG    1        0.928  -1.760  -1.092  0.00  0.00    +0.020 C 
BRANCH  13  14
ATOM     14  C   LIG    1        0.979  -0.231  -1.130  0.00  0.00    +0.010 C 
BRANCH  14  16
ATOM     15  C   LIG    1        0.483   1.859   0.147  0.00  0.00    +0.010 C 
ATOM     16  C   LIG    1        0.432   0.330   0.184  0.00  0.00    -0.010 C 
ENDBRANCH  14  16
ENDBRANCH  13  14
ENDBRANCH  10  13
ENDBRANCH   1  10
TORSDOF 6
ENDMDL
MODEL       51
REMARK  Name = ZINC000053816726
REMARK                            x       y       z     vdW  Elec       q    Type
REMARK                         _______ _______ _______ _____ _____    ______ ____
ROOT
ATOM      1  C   LIG    1        1.503  -2.548   2.473  0.00  0.00    +0.240 C 
ENDROOT
BRANCH   1   2
ATOM      2  C   LIG    1        1.417  -4.051   2.529  0.00  0.00    -0.130 A 
ATOM      3  C   LIG    1        2.267  -4.821   1.756  0.00  0.00    +0.010 A 
ATOM      4  C   LIG    1        2.189  -6.200   1.808  0.00  0.00    +0.060 A 
ATOM      5  C   LIG    1        1.262  -6.810   2.631  0.00  0.00    +0.070 A 
ATOM      6  C   LIG    1        0.412  -6.040   3.405  0.00  0.00    -0.030 A 
ATOM      7 CL   LIG    1       -0.752  -6.806   4.440  0.00  0.00    -0.040 Cl
ATOM      8  C   LIG    1        0.494  -4.660   3.357  0.00  0.00    +0.070 A 
ENDBRANCH   1   2
BRANCH   1   9
ATOM      9  N   LIG    1        2.912  -2.139   2.403  0.00  0.00    -0.640 N 
ATOM     10  H   LIG    1        2.969  -1.133   2.365  0.00  0.00    +0.440 HD
ATOM     11  H   LIG    1        3.335  -2.531   1.575  0.00  0.00    +0.430 HD
ATOM     12  H   LIG    1        3.400  -2.474   3.220  0.00  0.00    +0.440 HD
ENDBRANCH   1   9
BRANCH   1  13
ATOM     13  C   LIG    1        0.763  -2.041   1.233  0.00  0.00    +0.070 C 
BRANCH  13  14
ATOM     14  C   LIG    1        0.742  -0.511   1.242  0.00  0.00    -0.000 C 
BRANCH  14  16
ATOM     15  C   LIG    1       -0.019   1.526   0.010  0.00  0.00    +0.020 C 
ATOM     16  C   LIG    1        0.002  -0.004   0.002  0.00  0.00    +0.010 C 
ENDBRANCH  14  16
ENDBRANCH  13  14
ENDBRANCH   1  13
TORSDOF 5
ENDMDL
MODEL       52
REMARK  Name = ZINC000036420390
REMARK                            x       y       z     vdW  Elec       q    Type
REMARK                         _______ _______ _______ _____ _____    ______ ____
ROOT
ATOM      1  C   LIG    1        1.503  -2.548   2.473  0.00  0.00    +0.230 C 
ENDROOT
BRANCH   1   2
ATOM      2  C   LIG    1        1.417  -4.051   2.529  0.00  0.00    -0.130 A 
ATOM      3  C   LIG    1        2.486  -4.820   2.109  0.00  0.00    +0.010 A 
ATOM      4  C   LIG    1        2.408  -6.200   2.161  0.00  0.00    +0.050 A 
ATOM      5  C   LIG    1        1.261  -6.810   2.631  0.00  0.00    +0.070 A 
ATOM      6  C   LIG    1        0.191  -6.042   3.052  0.00  0.00    +0.060 A 
ATOM      7  C   LIG    1        0.271  -4.662   3.006  0.00  0.00    -0.020 A 
ATOM      8 CL   LIG    1       -1.072  -3.696   3.534  0.00  0.00    -0.040 Cl
ENDBRANCH   1   2
BRANCH   1   9
ATOM      9  N   LIG    1        2.912  -2.139   2.403  0.00  0.00    -0.640 N 
ATOM     10  H   LIG    1        3.400  -2.474   3.220  0.00  0.00    +0.440 HD
ATOM     11  H   LIG    1        2.969  -1.133   2.365  0.00  0.00    +0.440 HD
ATOM     12  H   LIG    1        3.335  -2.531   1.575  0.00  0.00    +0.430 HD
ENDBRANCH   1   9
BRANCH   1  13
ATOM     13  C   LIG    1        0.763  -2.041   1.233  0.00  0.00    +0.070 C 
BRANCH  13  14
ATOM     14  C   LIG    1        0.742  -0.511   1.242  0.00  0.00    +0.010 C 
BRANCH  14  16
ATOM     15  C   LIG    1       -0.019   1.526   0.010  0.00  0.00    +0.020 C 
ATOM     16  C   LIG    1        0.002  -0.004   0.002  0.00  0.00    +0.010 C 
ENDBRANCH  14  16
ENDBRANCH  13  14
ENDBRANCH   1  13
TORSDOF 5
ENDMDL
MODEL       53
REMARK  Name = ZINC000001586611
REMARK                            x       y       z     vdW  Elec       q    Type
REMARK                         _______ _______ _______ _____ _____    ______ ____
ROOT
ATOM      1  C   LIG    1        1.788  -2.286   2.333  0.00  0.00    -0.020 C 
ENDROOT
BRANCH   1   2
ATOM      2  C   LIG    1        3.144  -1.593   2.191  0.00  0.00    -0.000 C 
ATOM      3  C   LIG    1        3.683  -1.811   0.776  0.00  0.00    +0.020 C 
ENDBRANCH   1   2
BRANCH   1   4
ATOM      4  C   LIG    1        0.837  -1.771   1.251  0.00  0.00    +0.030 C 
BRANCH   4   5
ATOM      5  C   LIG    1        0.541  -0.290   1.494  0.00  0.00    +0.010 C 
BRANCH   5   7
ATOM      6  C   LIG    1       -0.624   1.732   0.601  0.00  0.00    +0.010 C 
ATOM      7  C   LIG    1       -0.328   0.250   0.357  0.00  0.00    -0.010 C 
ENDBRANCH   5   7
ENDBRANCH   4   5
ENDBRANCH   1   4
BRANCH   1   8
ATOM      8  C   LIG    1        1.968  -3.798   2.176  0.00  0.00    +0.250 C 
BRANCH   8   9
ATOM      9  N   LIG    1        2.801  -4.308   3.273  0.00  0.00    -0.390 N 
ATOM     10  H   LIG    1        3.666  -3.789   3.307  0.00  0.00    +0.420 HD
BRANCH   9  11
ATOM     11  C   LIG    1        3.092  -5.730   3.047  0.00  0.00    +0.240 C 
ATOM     12  C   LIG    1        3.955  -5.881   1.792  0.00  0.00    +0.080 C 
ENDBRANCH   9  11
BRANCH   9  13
ATOM     13  C   LIG    1        2.085  -4.151   4.546  0.00  0.00    +0.240 C 
ATOM     14  C   LIG    1        3.000  -4.565   5.700  0.00  0.00    +0.080 C 
ENDBRANCH   9  13
ENDBRANCH   8   9
ENDBRANCH   1   8
TORSDOF 8
ENDMDL
MODEL       54
REMARK  Name = ZINC000001707989
REMARK                            x       y       z     vdW  Elec       q    Type
REMARK                         _______ _______ _______ _____ _____    ______ ____
ROOT
ATOM      1  C   LIG    1        1.455  -2.521  -2.524  0.00  0.00    -0.050 C 
ENDROOT
BRANCH   1   2
ATOM      2  C   LIG    1        2.890  -1.991  -2.535  0.00  0.00    +0.010 C 
ATOM      3  C   LIG    1        3.631  -2.498  -1.295  0.00  0.00    +0.020 C 
ENDBRANCH   1   2
BRANCH   1   4
ATOM      4  C   LIG    1        0.715  -2.014  -3.764  0.00  0.00    +0.020 C 
ATOM      5  C   LIG    1       -0.720  -2.543  -3.753  0.00  0.00    +0.020 C 
ENDBRANCH   1   4
BRANCH   1   6
ATOM      6  C   LIG    1        0.739  -2.027  -1.265  0.00  0.00    +0.030 C 
BRANCH   6   7
ATOM      7  C   LIG    1        0.718  -0.497  -1.257  0.00  0.00    +0.020 C 
BRANCH   7   9
ATOM      8  C   LIG    1       -0.019   1.526   0.010  0.00  0.00    +0.000 C 
ATOM      9  C   LIG    1        0.002  -0.004   0.002  0.00  0.00    -0.010 C 
ENDBRANCH   7   9
ENDBRANCH   6   7
ENDBRANCH   1   6
BRANCH   1  10
ATOM     10  C   LIG    1        1.476  -4.051  -2.532  0.00  0.00    +0.030 C 
BRANCH  10  11
ATOM     11  C   LIG    1        2.192  -4.544  -3.791  0.00  0.00    +0.240 C 
BRANCH  11  12
ATOM     12  N   LIG    1        2.212  -6.013  -3.799  0.00  0.00    -0.390 N 
ATOM     13  C   LIG    1        3.002  -6.486  -4.944  0.00  0.00    +0.310 C 
ATOM     14  C   LIG    1        0.838  -6.521  -3.910  0.00  0.00    +0.310 C 
ATOM     15  H   LIG    1        2.627  -6.348  -2.943  0.00  0.00    +0.430 HD
ENDBRANCH  11  12
ENDBRANCH  10  11
ENDBRANCH   1  10
TORSDOF 8
ENDMDL
MODEL       55
REMARK  Name = ZINC000001730874
REMARK                            x       y       z     vdW  Elec       q    Type
REMARK                         _______ _______ _______ _____ _____    ______ ____
ROOT
ATOM      1  C   LIG    1       -2.848  -2.593   0.015  0.00  0.00    -0.050 C 
ENDROOT
BRANCH   1   2
ATOM      2  C   LIG    1       -3.564  -2.100   1.274  0.00  0.00    +0.010 C 
ATOM      3  C   LIG    1       -2.824  -2.607   2.514  0.00  0.00    +0.020 C 
ENDBRANCH   1   2
BRANCH   1   4
ATOM      4  C   LIG    1       -1.413  -2.063   0.004  0.00  0.00    +0.030 C 
BRANCH   4   5
ATOM      5  C   LIG    1       -1.433  -0.534   0.013  0.00  0.00    +0.020 C 
BRANCH   5   7
ATOM      6  C   LIG    1       -0.019   1.526   0.010  0.00  0.00    +0.000 C 
ATOM      7  C   LIG    1        0.002  -0.004   0.002  0.00  0.00    -0.010 C 
ENDBRANCH   5   7
ENDBRANCH   4   5
ENDBRANCH   1   4
BRANCH   1   8
ATOM      8  C   LIG    1       -2.827  -4.123   0.007  0.00  0.00    +0.030 C 
BRANCH   8   9
ATOM      9  C   LIG    1       -4.263  -4.652   0.018  0.00  0.00    +0.260 C 
BRANCH   9  10
ATOM     10  N   LIG    1       -4.243  -6.121   0.010  0.00  0.00    -0.640 N 
ATOM     11  H   LIG    1       -3.755  -6.456   0.827  0.00  0.00    +0.430 HD
ATOM     12  H   LIG    1       -3.770  -6.447  -0.821  0.00  0.00    +0.430 HD
ATOM     13  H   LIG    1       -5.189  -6.471   0.017  0.00  0.00    +0.440 HD
ENDBRANCH   9  10
ENDBRANCH   8   9
ENDBRANCH   1   8
BRANCH   1  14
ATOM     14  C   LIG    1       -3.588  -2.086  -1.224  0.00  0.00    +0.020 C 
BRANCH  14  15
ATOM     15  C   LIG    1       -2.872  -2.580  -2.483  0.00  0.00    -0.010 C 
ATOM     16  C   LIG    1       -3.612  -2.073  -3.723  0.00  0.00    +0.010 C 
ENDBRANCH  14  15
ENDBRANCH   1  14
TORSDOF 9
ENDMDL
MODEL       56
REMARK  Name = ZINC000001758854
REMARK                            x       y       z     vdW  Elec       q    Type
REMARK                         _______ _______ _______ _____ _____    ______ ____
ROOT
ATOM      1  C   LIG    1       -0.018   1.503   0.010  0.00  0.00    +0.070 C 
ATOM      2  C   LIG    1        0.002  -0.004   0.002  0.00  0.00    -0.100 C 
ATOM      3  C   LIG    1       -1.133  -0.626   0.004  0.00  0.00    -0.120 C 
ATOM      4  C   LIG    1       -1.272  -2.121   0.007  0.00  0.00    -0.020 C 
ATOM      5  C   LIG    1        0.045  -2.774  -0.417  0.00  0.00    +0.030 C 
ATOM      6  C   LIG    1        1.181  -2.154   0.408  0.00  0.00    +0.010 C 
ATOM      7  C   LIG    1       -2.375  -2.529  -0.973  0.00  0.00    +0.030 C 
ATOM      8  C   LIG    1       -1.644  -2.593   1.414  0.00  0.00    +0.030 C 
ATOM      9  C   LIG    1        1.337  -0.690  -0.014  0.00  0.00    +0.060 C 
ENDROOT
BRANCH   3  10
ATOM     10  C   LIG    1       -2.393   0.201   0.004  0.00  0.00    +0.050 C 
BRANCH  10  11
ATOM     11  C   LIG    1       -2.889   0.373  -1.433  0.00  0.00    +0.050 C 
BRANCH  11  12
ATOM     12  C   LIG    1       -4.168   1.213  -1.433  0.00  0.00    +0.170 C 
ATOM     13  C   LIG    1       -4.733   1.281  -2.853  0.00  0.00    +0.090 C 
BRANCH  12  14
ATOM     14  N   LIG    1       -3.862   2.571  -0.962  0.00  0.00    -0.640 N 
ATOM     15  H   LIG    1       -3.182   2.994  -1.575  0.00  0.00    +0.430 HD
ATOM     16  H   LIG    1       -3.490   2.526  -0.025  0.00  0.00    +0.430 HD
ATOM     17  H   LIG    1       -4.706   3.125  -0.962  0.00  0.00    +0.440 HD
ENDBRANCH  12  14
ENDBRANCH  11  12
ENDBRANCH  10  11
ENDBRANCH   3  10
TORSDOF 4
ENDMDL
MODEL       57
REMARK  Name = ZINC000002557914
REMARK                            x       y       z     vdW  Elec       q    Type
REMARK                         _______ _______ _______ _____ _____    ______ ____
ROOT
ATOM      1  N   LIG    1        0.017  -3.562  -0.543  0.00  0.00    -0.510 N 
ATOM      2  H   LIG    1       -0.851  -3.900  -0.155  0.00  0.00    +0.430 HD
ATOM      3  H   LIG    1        0.597  -3.197   0.198  0.00  0.00    +0.420 HD
ENDROOT
BRANCH   1   4
ATOM      4  C   LIG    1       -0.263  -2.497  -1.515  0.00  0.00    +0.050 C 
ATOM      5  C   LIG    1        1.031  -2.111  -2.235  0.00  0.00    +0.090 C 
ATOM      6  C   LIG    1       -1.286  -2.997  -2.538  0.00  0.00    +0.090 C 
BRANCH   4   8
ATOM      7  C   LIG    1       -1.117  -0.167  -1.799  0.00  0.00    +0.060 C 
ATOM      8  C   LIG    1       -0.826  -1.276  -0.786  0.00  0.00    +0.020 C 
ENDBRANCH   4   8
ENDBRANCH   1   4
BRANCH   1   9
ATOM      9  C   LIG    1        0.718  -4.666  -1.213  0.00  0.00    +0.070 C 
ATOM     10  C   LIG    1        2.224  -4.398  -1.197  0.00  0.00    +0.080 C 
ATOM     11  C   LIG    1        0.234  -4.772  -2.661  0.00  0.00    +0.100 C 
BRANCH   9  12
ATOM     12  C   LIG    1        0.424  -5.976  -0.480  0.00  0.00    +0.070 C 
BRANCH  12  13
ATOM     13  C   LIG    1        0.687  -5.793   1.016  0.00  0.00    -0.080 C 
ATOM     14  C   LIG    1        2.011  -5.051   1.215  0.00  0.00    +0.030 C 
ATOM     15  C   LIG    1        0.764  -7.163   1.692  0.00  0.00    +0.050 C 
ATOM     16  C   LIG    1       -0.451  -4.981   1.639  0.00  0.00    +0.020 C 
ENDBRANCH  12  13
ENDBRANCH   9  12
ENDBRANCH   1   9
TORSDOF 5
ENDMDL
