MODEL        1
REMARK  Name = ZINC000004269985
REMARK                            x       y       z     vdW  Elec       q    Type
REMARK                         _______ _______ _______ _____ _____    ______ ____
ROOT
ATOM      1  S   LIG    1        0.002  -0.004   0.002  0.00  0.00    -0.930 S 
ATOM      2  C   LIG    1       -0.022   1.758   0.012  0.00  0.00    +0.140 A 
ATOM      3  C   LIG    1       -1.232   2.438   0.033  0.00  0.00    -0.040 A 
ATOM      4  C   LIG    1       -1.248   3.820   0.040  0.00  0.00    +0.010 A 
ATOM      5  C   LIG    1       -0.061   4.533   0.027  0.00  0.00    -0.070 A 
ATOM      6  C   LIG    1        1.149   3.870   0.006  0.00  0.00    +0.020 A 
ATOM      7  C   LIG    1        1.180   2.478   0.004  0.00  0.00    -0.100 A 
ENDROOT
BRANCH   7   8
ATOM      8  C   LIG    1        2.478   1.761  -0.018  0.00  0.00    -0.010 A 
ATOM      9  C   LIG    1        3.452   2.106  -0.953  0.00  0.00    -0.010 A 
ATOM     10  C   LIG    1        4.658   1.436  -0.969  0.00  0.00    -0.030 A 
ATOM     11  C   LIG    1        4.901   0.423  -0.058  0.00  0.00    -0.020 A 
ATOM     12  C   LIG    1        3.938   0.076   0.872  0.00  0.00    -0.030 A 
ATOM     13  C   LIG    1        2.731   0.743   0.901  0.00  0.00    +0.080 A 
ENDBRANCH   7   8
TORSDOF 1
ENDMDL
MODEL        2
REMARK  Name = ZINC000036533094
REMARK                            x       y       z     vdW  Elec       q    Type
REMARK                         _______ _______ _______ _____ _____    ______ ____
ROOT
ATOM      1  C   LIG    1       -0.018   1.503   0.010  0.00  0.00    +0.100 C 
ATOM      2  C   LIG    1        0.002  -0.004   0.002  0.00  0.00    -0.100 A 
ATOM      3  C   LIG    1        0.006  -0.689  -1.197  0.00  0.00    +0.030 A 
ATOM      4  C   LIG    1        0.025  -2.072  -1.206  0.00  0.00    -0.080 A 
ATOM      5  C   LIG    1        0.041  -2.775  -0.014  0.00  0.00    +0.030 A 
ATOM      6  C   LIG    1        0.036  -2.096   1.189  0.00  0.00    -0.060 A 
ATOM      7 CL   LIG    1        0.056  -2.978   2.685  0.00  0.00    -0.070 Cl
ATOM      8 CL   LIG    1        0.030  -2.929  -2.717  0.00  0.00    -0.100 Cl
ATOM      9  C   LIG    1        0.023  -0.706   1.201  0.00  0.00    +0.130 A 
ATOM     10  S   LIG    1        0.018   0.164   2.733  0.00  0.00    -0.880 S 
ENDROOT
TORSDOF 0
ENDMDL
MODEL        3
REMARK  Name = ZINC000036533045
REMARK                            x       y       z     vdW  Elec       q    Type
REMARK                         _______ _______ _______ _____ _____    ______ ____
ROOT
ATOM      1  C   LIG    1        2.079  -4.553  -3.590  0.00  0.00    +0.060 A 
ATOM      2  C   LIG    1        2.645  -3.784  -4.596  0.00  0.00    -0.080 A 
ATOM      3  C   LIG    1        3.259  -4.396  -5.671  0.00  0.00    -0.010 A 
ATOM      4  C   LIG    1        3.308  -5.782  -5.746  0.00  0.00    +0.110 A 
ATOM      5  C   LIG    1        2.741  -6.551  -4.738  0.00  0.00    +0.000 A 
ATOM      6  S   LIG    1        4.091  -6.564  -7.117  0.00  0.00    -0.960 S 
ATOM      7  C   LIG    1        2.133  -5.937  -3.661  0.00  0.00    -0.020 A 
ENDROOT
BRANCH   1   8
ATOM      8  O   LIG    1        1.474  -3.950  -2.532  0.00  0.00    -0.330 OA
BRANCH   8   9
ATOM      9  C   LIG    1        1.455  -2.521  -2.524  0.00  0.00    +0.160 C 
BRANCH   9  10
ATOM     10  C   LIG    1        0.739  -2.027  -1.265  0.00  0.00    +0.020 C 
BRANCH  10  11
ATOM     11  C   LIG    1        0.718  -0.497  -1.257  0.00  0.00    +0.000 C 
BRANCH  11  13
ATOM     12  C   LIG    1       -0.019   1.526   0.010  0.00  0.00    +0.000 C 
ATOM     13  C   LIG    1        0.002  -0.004   0.002  0.00  0.00    +0.000 C 
ENDBRANCH  11  13
ENDBRANCH  10  11
ENDBRANCH   9  10
ENDBRANCH   8   9
ENDBRANCH   1   8
TORSDOF 5
ENDMDL
MODEL        4
REMARK  Name = ZINC000004403437
REMARK                            x       y       z     vdW  Elec       q    Type
REMARK                         _______ _______ _______ _____ _____    ______ ____
ROOT
ATOM      1  C   LIG    1       -4.963   0.678   0.029  0.00  0.00    +0.010 C 
ENDROOT
BRANCH   1   2
ATOM      2  C   LIG    1       -3.814   1.688   0.029  0.00  0.00    -0.020 C 
BRANCH   2   3
ATOM      3  C   LIG    1       -2.479   0.941   0.019  0.00  0.00    +0.030 C 
BRANCH   3   4
ATOM      4  C   LIG    1       -1.330   1.951   0.019  0.00  0.00    -0.080 C 
BRANCH   4   6
ATOM      5  O   LIG    1        0.002  -0.004   0.002  0.00  0.00    -0.700 OA
ATOM      6  C   LIG    1       -0.015   1.215   0.009  0.00  0.00    +0.490 C 
ATOM      7  O   LIG    1        1.033   1.839   0.002  0.00  0.00    -0.710 OA
ENDBRANCH   4   6
ENDBRANCH   3   4
ENDBRANCH   2   3
ENDBRANCH   1   2
BRANCH   1   8
ATOM      8  C   LIG    1       -6.299   1.425   0.040  0.00  0.00    +0.040 C 
BRANCH   8   9
ATOM      9  C   LIG    1       -7.431   0.430   0.040  0.00  0.00    -0.110 C 
ATOM     10  C   LIG    1       -7.951   0.102   1.179  0.00  0.00    -0.070 C 
ATOM     11  C   LIG    1       -9.073  -0.881   1.339  0.00  0.00    +0.050 C 
ATOM     12  C   LIG    1       -9.778  -1.099  -0.002  0.00  0.00    +0.000 C 
ATOM     13  C   LIG    1       -8.713  -1.388  -1.068  0.00  0.00    +0.000 C 
ATOM     14  C   LIG    1       -7.889  -0.114  -1.282  0.00  0.00    +0.060 C 
ENDBRANCH   8   9
ENDBRANCH   1   8
TORSDOF 6
ENDMDL
MODEL        5
REMARK  Name = ZINC000095611361
REMARK                            x       y       z     vdW  Elec       q    Type
REMARK                         _______ _______ _______ _____ _____    ______ ____
ROOT
ATOM      1  C   LIG    1       -4.963   0.678   0.029  0.00  0.00    +0.000 C 
ENDROOT
BRANCH   1   2
ATOM      2  C   LIG    1       -3.814   1.688   0.029  0.00  0.00    -0.020 C 
BRANCH   2   3
ATOM      3  C   LIG    1       -2.479   0.941   0.019  0.00  0.00    +0.030 C 
BRANCH   3   4
ATOM      4  C   LIG    1       -1.330   1.951   0.019  0.00  0.00    -0.080 C 
BRANCH   4   6
ATOM      5  O   LIG    1        0.002  -0.004   0.002  0.00  0.00    -0.700 OA
ATOM      6  C   LIG    1       -0.015   1.215   0.009  0.00  0.00    +0.490 C 
ATOM      7  O   LIG    1        1.033   1.839   0.002  0.00  0.00    -0.710 OA
ENDBRANCH   4   6
ENDBRANCH   3   4
ENDBRANCH   2   3
ENDBRANCH   1   2
BRANCH   1   8
ATOM      8  C   LIG    1       -6.299   1.425   0.040  0.00  0.00    +0.000 C 
BRANCH   8   9
ATOM      9  C   LIG    1       -7.448   0.415   0.040  0.00  0.00    +0.010 C 
BRANCH   9  10
ATOM     10  C   LIG    1       -8.783   1.162   0.050  0.00  0.00    -0.020 C 
ATOM     11  C   LIG    1       -9.023   1.862  -1.310  0.00  0.00    +0.020 C 
ATOM     12  C   LIG    1      -10.564   2.014  -1.350  0.00  0.00    -0.010 C 
ATOM     13  C   LIG    1      -11.089   0.710  -0.714  0.00  0.00    -0.010 C 
ATOM     14  C   LIG    1       -9.957   0.168   0.176  0.00  0.00    +0.000 C 
ENDBRANCH   9  10
ENDBRANCH   8   9
ENDBRANCH   1   8
TORSDOF 7
ENDMDL
MODEL        6
REMARK  Name = ZINC000060236357
REMARK                            x       y       z     vdW  Elec       q    Type
REMARK                         _______ _______ _______ _____ _____    ______ ____
ROOT
ATOM      1  C   LIG    1       -4.032  -4.656   0.016  0.00  0.00    +0.090 A 
ATOM      2  C   LIG    1       -5.204  -3.919   0.025  0.00  0.00    -0.090 A 
ATOM      3  C   LIG    1       -6.427  -4.565   0.033  0.00  0.00    -0.040 A 
ATOM      4  C   LIG    1       -6.484  -5.947   0.032  0.00  0.00    -0.030 A 
ATOM      5  C   LIG    1       -5.319  -6.690   0.022  0.00  0.00    -0.010 A 
ATOM      6  C   LIG    1       -4.088  -6.049   0.009  0.00  0.00    +0.110 A 
ATOM      7  S   LIG    1       -2.600  -6.993  -0.003  0.00  0.00    -0.940 S 
ENDROOT
BRANCH   1   8
ATOM      8  O   LIG    1       -2.829  -4.022   0.007  0.00  0.00    -0.280 OA
BRANCH   8   9
ATOM      9  C   LIG    1       -2.848  -2.593   0.015  0.00  0.00    +0.160 C 
BRANCH   9  10
ATOM     10  C   LIG    1       -1.413  -2.063   0.004  0.00  0.00    +0.020 C 
BRANCH  10  11
ATOM     11  C   LIG    1       -1.433  -0.534   0.013  0.00  0.00    +0.010 C 
BRANCH  11  13
ATOM     12  C   LIG    1       -0.019   1.526   0.010  0.00  0.00    +0.000 C 
ATOM     13  C   LIG    1        0.002  -0.004   0.002  0.00  0.00    +0.000 C 
ENDBRANCH  11  13
ENDBRANCH  10  11
ENDBRANCH   9  10
ENDBRANCH   8   9
ENDBRANCH   1   8
TORSDOF 5
ENDMDL
MODEL        7
REMARK  Name = ZINC000095731653
REMARK                            x       y       z     vdW  Elec       q    Type
REMARK                         _______ _______ _______ _____ _____    ______ ____
ROOT
ATOM      1  C   LIG    1       -3.123  -2.761  -0.115  0.00  0.00    -0.150 A 
ATOM      2  C   LIG    1       -4.082  -1.763   0.005  0.00  0.00    +0.000 A 
ATOM      3  C   LIG    1       -5.422  -2.092   0.030  0.00  0.00    -0.030 A 
ATOM      4  C   LIG    1       -5.812  -3.422  -0.066  0.00  0.00    +0.140 A 
ATOM      5  C   LIG    1       -4.854  -4.420  -0.187  0.00  0.00    -0.020 A 
ATOM      6  S   LIG    1       -7.523  -3.842  -0.034  0.00  0.00    -0.950 S 
ATOM      7  C   LIG    1       -3.514  -4.090  -0.215  0.00  0.00    +0.030 A 
ENDROOT
BRANCH   1   8
ATOM      8  S   LIG    1       -1.412  -2.341  -0.146  0.00  0.00    -0.150 S 
BRANCH   8   9
ATOM      9  C   LIG    1       -1.433  -0.534   0.013  0.00  0.00    +0.060 C 
BRANCH   9  11
ATOM     10  C   LIG    1       -0.019   1.526   0.010  0.00  0.00    +0.040 C 
ATOM     11  C   LIG    1        0.002  -0.004   0.002  0.00  0.00    +0.000 C 
ATOM     12  C   LIG    1        0.742  -0.511   1.242  0.00  0.00    +0.030 C 
ENDBRANCH   9  11
ENDBRANCH   8   9
ENDBRANCH   1   8
TORSDOF 3
ENDMDL
MODEL        8
REMARK  Name = ZINC000040571356
REMARK                            x       y       z     vdW  Elec       q    Type
REMARK                         _______ _______ _______ _____ _____    ______ ____
ROOT
ATOM      1  C   LIG    1       -2.829  -2.579  -0.111  0.00  0.00    -0.150 A 
ATOM      2  C   LIG    1       -3.431  -2.917   1.088  0.00  0.00    +0.000 A 
ATOM      3  C   LIG    1       -4.726  -3.395   1.102  0.00  0.00    -0.040 A 
ATOM      4  C   LIG    1       -5.426  -3.536  -0.091  0.00  0.00    +0.130 A 
ATOM      5  C   LIG    1       -4.818  -3.196  -1.293  0.00  0.00    -0.040 A 
ATOM      6  S   LIG    1       -7.079  -4.145  -0.078  0.00  0.00    -0.960 S 
ATOM      7  C   LIG    1       -3.524  -2.714  -1.299  0.00  0.00    +0.000 A 
ENDROOT
BRANCH   1   8
ATOM      8  C   LIG    1       -1.416  -2.058  -0.121  0.00  0.00    +0.060 C 
BRANCH   8   9
ATOM      9  C   LIG    1       -1.433  -0.534   0.013  0.00  0.00    +0.010 C 
BRANCH   9  11
ATOM     10  C   LIG    1       -0.019   1.526   0.010  0.00  0.00    +0.000 C 
ATOM     11  C   LIG    1        0.002  -0.004   0.002  0.00  0.00    -0.030 C 
ATOM     12  C   LIG    1        0.742  -0.511   1.242  0.00  0.00    +0.010 C 
ENDBRANCH   9  11
ENDBRANCH   8   9
ENDBRANCH   1   8
TORSDOF 3
ENDMDL
MODEL        9
REMARK  Name = ZINC000071792190
REMARK                            x       y       z     vdW  Elec       q    Type
REMARK                         _______ _______ _______ _____ _____    ______ ____
ROOT
ATOM      1  C   LIG    1       -0.018   1.503   0.010  0.00  0.00    +0.100 C 
ATOM      2  C   LIG    1        0.002  -0.004   0.002  0.00  0.00    -0.050 A 
ATOM      3  C   LIG    1        0.006  -0.689  -1.200  0.00  0.00    -0.090 A 
ATOM      4  C   LIG    1        0.025  -2.073  -1.212  0.00  0.00    +0.030 A 
ATOM      5  C   LIG    1        0.040  -2.775  -0.023  0.00  0.00    -0.010 A 
ATOM      6  C   LIG    1        0.036  -2.091   1.186  0.00  0.00    +0.140 A 
ATOM      7  S   LIG    1        0.056  -2.984   2.705  0.00  0.00    -0.890 S 
ATOM      8 CL   LIG    1       -0.013   0.190  -2.698  0.00  0.00    -0.100 Cl
ATOM      9  C   LIG    1        0.023  -0.701   1.195  0.00  0.00    -0.060 A 
ATOM     10 CL   LIG    1        0.019   0.159   2.704  0.00  0.00    -0.060 Cl
ENDROOT
TORSDOF 0
ENDMDL
MODEL       10
REMARK  Name = ZINC000080351233
REMARK                            x       y       z     vdW  Elec       q    Type
REMARK                         _______ _______ _______ _____ _____    ______ ____
ROOT
ATOM      1  C   LIG    1        2.078  -4.553  -3.590  0.00  0.00    +0.140 A 
ATOM      2  C   LIG    1        2.645  -3.784  -4.596  0.00  0.00    -0.160 A 
ATOM      3  C   LIG    1        3.260  -4.395  -5.673  0.00  0.00    +0.040 A 
ATOM      4  C   LIG    1        3.312  -5.773  -5.751  0.00  0.00    -0.070 A 
ATOM      5  C   LIG    1        2.745  -6.549  -4.746  0.00  0.00    +0.170 A 
ATOM      6  S   LIG    1        2.811  -8.307  -4.845  0.00  0.00    -0.940 S 
ATOM      7  C   LIG    1        2.133  -5.936  -3.661  0.00  0.00    -0.060 A 
ENDROOT
BRANCH   1   8
ATOM      8  O   LIG    1        1.474  -3.950  -2.532  0.00  0.00    -0.320 OA
BRANCH   8   9
ATOM      9  C   LIG    1        1.455  -2.521  -2.524  0.00  0.00    +0.180 C 
BRANCH   9  10
ATOM     10  C   LIG    1        0.739  -2.027  -1.265  0.00  0.00    +0.020 C 
BRANCH  10  11
ATOM     11  C   LIG    1        0.718  -0.497  -1.257  0.00  0.00    +0.000 C 
BRANCH  11  13
ATOM     12  C   LIG    1       -0.019   1.526   0.010  0.00  0.00    +0.000 C 
ATOM     13  C   LIG    1        0.002  -0.004   0.002  0.00  0.00    +0.000 C 
ENDBRANCH  11  13
ENDBRANCH  10  11
ENDBRANCH   9  10
ENDBRANCH   8   9
ENDBRANCH   1   8
TORSDOF 5
ENDMDL
MODEL       11
REMARK  Name = ZINC000095731659
REMARK                            x       y       z     vdW  Elec       q    Type
REMARK                         _______ _______ _______ _____ _____    ______ ____
ROOT
ATOM      1  C   LIG    1       -3.877  -0.742  -1.335  0.00  0.00    -0.120 A 
ATOM      2  C   LIG    1       -4.204  -1.440  -0.182  0.00  0.00    -0.010 A 
ATOM      3  C   LIG    1       -5.470  -1.976  -0.033  0.00  0.00    -0.060 A 
ATOM      4  C   LIG    1       -6.413  -1.821  -1.032  0.00  0.00    +0.000 A 
ATOM      5  C   LIG    1       -6.096  -1.127  -2.186  0.00  0.00    -0.030 A 
ATOM      6  C   LIG    1       -4.832  -0.580  -2.341  0.00  0.00    +0.140 A 
ATOM      7  S   LIG    1       -4.425   0.304  -3.810  0.00  0.00    -0.910 S 
ENDROOT
BRANCH   1   8
ATOM      8  S   LIG    1       -2.265  -0.057  -1.527  0.00  0.00    -0.050 S 
BRANCH   8   9
ATOM      9  C   LIG    1       -1.433  -0.534   0.013  0.00  0.00    +0.000 C 
BRANCH   9  11
ATOM     10  C   LIG    1       -0.019   1.526   0.010  0.00  0.00    +0.020 C 
ATOM     11  C   LIG    1        0.002  -0.004   0.002  0.00  0.00    +0.000 C 
ATOM     12  C   LIG    1        0.742  -0.511   1.242  0.00  0.00    +0.020 C 
ENDBRANCH   9  11
ENDBRANCH   8   9
ENDBRANCH   1   8
TORSDOF 3
ENDMDL
MODEL       12
REMARK  Name = ZINC000095731657
REMARK                            x       y       z     vdW  Elec       q    Type
REMARK                         _______ _______ _______ _____ _____    ______ ____
ROOT
ATOM      1  C   LIG    1        0.802  -0.708   4.033  0.00  0.00    -0.070 A 
ATOM      2  C   LIG    1        1.984  -1.379   3.739  0.00  0.00    -0.080 A 
ATOM      3  C   LIG    1        2.759  -1.894   4.760  0.00  0.00    +0.020 A 
ATOM      4  C   LIG    1        2.364  -1.745   6.075  0.00  0.00    -0.040 A 
ATOM      5  C   LIG    1        1.183  -1.075   6.376  0.00  0.00    +0.150 A 
ATOM      6  S   LIG    1        0.680  -0.886   8.054  0.00  0.00    -0.940 S 
ATOM      7  C   LIG    1        0.404  -0.552   5.354  0.00  0.00    -0.010 A 
ENDROOT
BRANCH   1   8
ATOM      8  S   LIG    1       -0.187  -0.052   2.730  0.00  0.00    -0.140 S 
BRANCH   8   9
ATOM      9  C   LIG    1        0.742  -0.511   1.242  0.00  0.00    +0.060 C 
BRANCH   9  11
ATOM     10  C   LIG    1       -0.019   1.526   0.010  0.00  0.00    +0.030 C 
ATOM     11  C   LIG    1        0.002  -0.004   0.002  0.00  0.00    +0.000 C 
ATOM     12  C   LIG    1        0.718  -0.497  -1.257  0.00  0.00    +0.040 C 
ENDBRANCH   9  11
ENDBRANCH   8   9
ENDBRANCH   1   8
TORSDOF 3
ENDMDL
MODEL       13
REMARK  Name = ZINC000095731471
REMARK                            x       y       z     vdW  Elec       q    Type
REMARK                         _______ _______ _______ _____ _____    ______ ____
ROOT
ATOM      1  C   LIG    1       -2.892  -4.439   0.006  0.00  0.00    -0.060 A 
ATOM      2  C   LIG    1       -1.610  -4.978  -0.004  0.00  0.00    -0.080 A 
ATOM      3  C   LIG    1       -1.435  -6.348  -0.013  0.00  0.00    +0.020 A 
ATOM      4  C   LIG    1       -2.532  -7.188  -0.012  0.00  0.00    -0.040 A 
ATOM      5  C   LIG    1       -3.817  -6.657  -0.003  0.00  0.00    +0.150 A 
ATOM      6  S   LIG    1       -5.215  -7.729  -0.002  0.00  0.00    -0.940 S 
ATOM      7  C   LIG    1       -3.997  -5.280   0.012  0.00  0.00    -0.010 A 
ENDROOT
BRANCH   1   8
ATOM      8  S   LIG    1       -3.114  -2.691   0.017  0.00  0.00    -0.150 S 
BRANCH   8   9
ATOM      9  C   LIG    1       -1.413  -2.063   0.004  0.00  0.00    +0.060 C 
BRANCH   9  10
ATOM     10  C   LIG    1       -1.433  -0.534   0.013  0.00  0.00    +0.040 C 
BRANCH  10  12
ATOM     11  C   LIG    1       -0.019   1.526   0.010  0.00  0.00    +0.000 C 
ATOM     12  C   LIG    1        0.002  -0.004   0.002  0.00  0.00    +0.000 C 
ENDBRANCH  10  12
ENDBRANCH   9  10
ENDBRANCH   8   9
ENDBRANCH   1   8
TORSDOF 4
ENDMDL
MODEL       14
REMARK  Name = ZINC000095731474
REMARK                            x       y       z     vdW  Elec       q    Type
REMARK                         _______ _______ _______ _____ _____    ______ ____
ROOT
ATOM      1  C   LIG    1        1.563  -4.393   2.522  0.00  0.00    -0.120 A 
ATOM      2  C   LIG    1        0.930  -4.951   1.422  0.00  0.00    -0.010 A 
ATOM      3  C   LIG    1        0.871  -6.326   1.282  0.00  0.00    -0.060 A 
ATOM      4  C   LIG    1        1.441  -7.147   2.237  0.00  0.00    +0.000 A 
ATOM      5  C   LIG    1        2.075  -6.599   3.337  0.00  0.00    -0.030 A 
ATOM      6  C   LIG    1        2.144  -5.222   3.483  0.00  0.00    +0.140 A 
ATOM      7  S   LIG    1        2.950  -4.521   4.885  0.00  0.00    -0.910 S 
ENDROOT
BRANCH   1   8
ATOM      8  S   LIG    1        1.640  -2.642   2.703  0.00  0.00    -0.060 S 
BRANCH   8   9
ATOM      9  C   LIG    1        0.763  -2.041   1.233  0.00  0.00    -0.010 C 
BRANCH   9  10
ATOM     10  C   LIG    1        0.742  -0.511   1.242  0.00  0.00    +0.040 C 
BRANCH  10  12
ATOM     11  C   LIG    1       -0.019   1.526   0.010  0.00  0.00    +0.000 C 
ATOM     12  C   LIG    1        0.002  -0.004   0.002  0.00  0.00    +0.000 C 
ENDBRANCH  10  12
ENDBRANCH   9  10
ENDBRANCH   8   9
ENDBRANCH   1   8
TORSDOF 4
ENDMDL
MODEL       15
REMARK  Name = ZINC000095731467
REMARK                            x       y       z     vdW  Elec       q    Type
REMARK                         _______ _______ _______ _____ _____    ______ ____
ROOT
ATOM      1  C   LIG    1       -2.892  -4.439   0.006  0.00  0.00    -0.140 A 
ATOM      2  C   LIG    1       -1.611  -4.976  -0.004  0.00  0.00    +0.000 A 
ATOM      3  C   LIG    1       -1.437  -6.346  -0.013  0.00  0.00    -0.030 A 
ATOM      4  C   LIG    1       -2.543  -7.187  -0.012  0.00  0.00    +0.140 A 
ATOM      5  C   LIG    1       -3.824  -6.650  -0.001  0.00  0.00    -0.020 A 
ATOM      6  S   LIG    1       -2.320  -8.935  -0.024  0.00  0.00    -0.950 S 
ATOM      7  C   LIG    1       -3.998  -5.280   0.012  0.00  0.00    +0.030 A 
ENDROOT
BRANCH   1   8
ATOM      8  S   LIG    1       -3.114  -2.691   0.017  0.00  0.00    -0.160 S 
BRANCH   8   9
ATOM      9  C   LIG    1       -1.413  -2.063   0.004  0.00  0.00    +0.060 C 
BRANCH   9  10
ATOM     10  C   LIG    1       -1.433  -0.534   0.013  0.00  0.00    +0.040 C 
BRANCH  10  12
ATOM     11  C   LIG    1       -0.019   1.526   0.010  0.00  0.00    +0.000 C 
ATOM     12  C   LIG    1        0.002  -0.004   0.002  0.00  0.00    +0.000 C 
ENDBRANCH  10  12
ENDBRANCH   9  10
ENDBRANCH   8   9
ENDBRANCH   1   8
TORSDOF 4
ENDMDL
MODEL       16
REMARK  Name = ZINC000002584568
REMARK                            x       y       z     vdW  Elec       q    Type
REMARK                         _______ _______ _______ _____ _____    ______ ____
ROOT
ATOM      1  C   LIG    1       -0.018   1.503   0.010  0.00  0.00    +0.090 C 
ATOM      2  C   LIG    1        0.002  -0.004   0.002  0.00  0.00    -0.060 A 
ATOM      3  C   LIG    1        0.006  -0.687  -1.198  0.00  0.00    +0.000 A 
ATOM      4  C   LIG    1        0.025  -2.076  -1.206  0.00  0.00    +0.140 A 
ATOM      5  C   LIG    1        0.040  -2.775  -0.004  0.00  0.00    -0.070 A 
ATOM      6  C   LIG    1        0.036  -2.085   1.194  0.00  0.00    +0.050 A 
ATOM      7 CL   LIG    1        0.064  -4.511  -0.007  0.00  0.00    -0.070 Cl
ATOM      8  S   LIG    1        0.030  -2.951  -2.735  0.00  0.00    -0.890 S 
ATOM      9  C   LIG    1        0.023  -0.702   1.197  0.00  0.00    -0.090 A 
ATOM     10 CL   LIG    1        0.019   0.161   2.704  0.00  0.00    -0.100 Cl
ENDROOT
TORSDOF 0
ENDMDL
