REMARK  Name = ZINC000104509727
REMARK                            x       y       z     vdW  Elec       q    Type
REMARK                         _______ _______ _______ _____ _____    ______ ____
ROOT
ATOM      1  C   LIG    1       -0.016   1.351   0.009  0.00  0.00    +0.090 A 
ATOM      2  C   LIG    1       -1.221   2.035   0.030  0.00  0.00    +0.160 A 
ATOM      3  C   LIG    1       -1.247   3.424   0.038  0.00  0.00    +0.100 A 
ATOM      4  C   LIG    1       -0.092   4.150   0.025  0.00  0.00    +0.090 A 
ATOM      5  C   LIG    1        1.149   3.498   0.004  0.00  0.00    -0.020 A 
ATOM      6  C   LIG    1        2.362   4.231  -0.009  0.00  0.00    +0.090 A 
ATOM      7  C   LIG    1        3.567   3.547  -0.029  0.00  0.00    +0.160 A 
ATOM      8  C   LIG    1        3.592   2.158  -0.038  0.00  0.00    +0.100 A 
ATOM      9  C   LIG    1        2.438   1.432  -0.026  0.00  0.00    +0.090 A 
ATOM     10  C   LIG    1        1.196   2.084   0.002  0.00  0.00    -0.020 A 
ENDROOT
BRANCH   1  12
ATOM     11  C   LIG    1        0.018  -1.140  -0.004  0.00  0.00    +0.980 C 
ATOM     12  N   LIG    1        0.002  -0.004   0.002  0.00  0.00    -0.390 NA
ENDBRANCH   1  12
BRANCH   6  13
ATOM     13  N   LIG    1        2.343   5.586  -0.001  0.00  0.00    -0.390 NA
ATOM     14  C   LIG    1        2.328   6.722   0.006  0.00  0.00    +0.980 C 
ENDBRANCH   6  13
TORSDOF 2
