MODEL        1
REMARK  Name = ZINC000001686632
REMARK                            x       y       z     vdW  Elec       q    Type
REMARK                         _______ _______ _______ _____ _____    ______ ____
ROOT
ATOM      1  C   LIG    1        0.002  -0.004   0.002  0.00  0.00    +0.100 A 
ATOM      2  C   LIG    1        0.006  -0.692  -1.203  0.00  0.00    -0.010 A 
ATOM      3  C   LIG    1        0.025  -2.074  -1.208  0.00  0.00    +0.030 A 
ATOM      4  C   LIG    1        0.040  -2.770  -0.013  0.00  0.00    -0.080 A 
ATOM      5  C   LIG    1        0.037  -2.087   1.189  0.00  0.00    +0.030 A 
ATOM      6  C   LIG    1        0.023  -0.705   1.199  0.00  0.00    -0.010 A 
ENDROOT
BRANCH   4   7
ATOM      7  C   LIG    1        0.061  -4.277  -0.021  0.00  0.00    +0.040 C 
ATOM      8  C   LIG    1        1.286  -4.770   0.699  0.00  0.00    +0.010 C 
ATOM      9  C   LIG    1        1.845  -6.070   0.091  0.00  0.00    +0.000 C 
ATOM     10  C   LIG    1        0.740  -7.076  -0.286  0.00  0.00    +0.000 C 
ATOM     11  C   LIG    1       -0.343  -7.160   0.755  0.00  0.00    +0.010 C 
ATOM     12  C   LIG    1       -1.481  -6.198   0.357  0.00  0.00    +0.000 C 
ATOM     13  C   LIG    1       -1.187  -4.816   0.708  0.00  0.00    +0.010 C 
ENDBRANCH   4   7
BRANCH   1  14
ATOM     14  O   LIG    1       -0.016   1.355   0.009  0.00  0.00    -0.500 OA
ATOM     15  H   LIG    1        0.862   1.760   0.003  0.00  0.00    +0.390 HD
ENDBRANCH   1  14
TORSDOF 2
ENDMDL
MODEL        2
REMARK  Name = ZINC000001680695
REMARK                            x       y       z     vdW  Elec       q    Type
REMARK                         _______ _______ _______ _____ _____    ______ ____
ROOT
ATOM      1  C   LIG    1       -1.412  -0.526   0.013  0.00  0.00    +0.140 A 
ATOM      2  C   LIG    1       -2.388   0.161   0.710  0.00  0.00    -0.050 A 
ATOM      3  C   LIG    1       -3.686  -0.328   0.713  0.00  0.00    +0.060 A 
ATOM      4  C   LIG    1       -3.954  -1.493   0.012  0.00  0.00    -0.040 A 
ATOM      5  C   LIG    1       -2.926  -2.125  -0.663  0.00  0.00    +0.150 A 
ATOM      6  N   LIG    1       -1.704  -1.629  -0.648  0.00  0.00    -0.480 NA
ENDROOT
BRANCH   5   7
ATOM      7  C   LIG    1       -3.207  -3.392  -1.429  0.00  0.00    -0.020 C 
ATOM      8  C   LIG    1       -2.448  -4.555  -0.787  0.00  0.00    +0.030 C 
ATOM      9  C   LIG    1       -2.748  -3.223  -2.879  0.00  0.00    +0.050 C 
ATOM     10  C   LIG    1       -4.708  -3.684  -1.400  0.00  0.00    +0.030 C 
ENDBRANCH   5   7
BRANCH   1  12
ATOM     11  C   LIG    1       -0.019   1.526   0.010  0.00  0.00    +0.030 C 
ATOM     12  C   LIG    1        0.002  -0.004   0.002  0.00  0.00    +0.040 C 
ATOM     13  C   LIG    1        0.742  -0.511   1.242  0.00  0.00    +0.040 C 
ENDBRANCH   1  12
TORSDOF 2
ENDMDL
MODEL        3
REMARK  Name = ZINC000001679648
REMARK                            x       y       z     vdW  Elec       q    Type
REMARK                         _______ _______ _______ _____ _____    ______ ____
ROOT
ATOM      1  C   LIG    1       -2.309  -3.059   0.008  0.00  0.00    +0.000 C 
ATOM      2  C   LIG    1       -3.086  -2.764  -1.268  0.00  0.00    -0.020 C 
ATOM      3  C   LIG    1       -4.322  -3.630  -1.421  0.00  0.00    +0.010 C 
ATOM      4  C   LIG    1       -4.134  -5.098  -1.092  0.00  0.00    -0.030 C 
ATOM      5  C   LIG    1       -3.325  -5.322   0.178  0.00  0.00    +0.010 C 
ATOM      6  C   LIG    1       -3.520  -5.864  -2.264  0.00  0.00    +0.010 C 
ATOM      7  C   LIG    1       -2.174  -2.865  -2.490  0.00  0.00    +0.020 C 
ATOM      8  C   LIG    1       -2.006  -4.553   0.122  0.00  0.00    -0.010 C 
ATOM      9  C   LIG    1       -1.220  -4.808   1.414  0.00  0.00    +0.010 C 
ENDROOT
BRANCH   1  10
ATOM     10  C   LIG    1       -0.993  -2.276  -0.001  0.00  0.00    +0.030 C 
BRANCH  10  11
ATOM     11  C   LIG    1       -1.293  -0.775   0.010  0.00  0.00    +0.020 C 
BRANCH  11  13
ATOM     12  C   LIG    1       -0.018   1.503   0.010  0.00  0.00    +0.050 C 
ATOM     13  C   LIG    1        0.002  -0.004   0.002  0.00  0.00    +0.350 C 
ATOM     14  O   LIG    1        1.056  -0.594  -0.011  0.00  0.00    -0.460 OA
ENDBRANCH  11  13
ENDBRANCH  10  11
ENDBRANCH   1  10
TORSDOF 3
ENDMDL
MODEL        4
REMARK  Name = ZINC000001679647
REMARK                            x       y       z     vdW  Elec       q    Type
REMARK                         _______ _______ _______ _____ _____    ______ ____
ROOT
ATOM      1  C   LIG    1       -2.282  -3.165  -0.020  0.00  0.00    +0.000 C 
ATOM      2  C   LIG    1       -2.964  -2.958  -1.372  0.00  0.00    -0.010 C 
ATOM      3  C   LIG    1       -4.232  -3.807  -1.422  0.00  0.00    +0.010 C 
ATOM      4  C   LIG    1       -3.899  -5.285  -1.280  0.00  0.00    -0.030 C 
ATOM      5  C   LIG    1       -3.036  -5.583  -0.068  0.00  0.00    +0.010 C 
ATOM      6  C   LIG    1       -3.268  -5.821  -2.565  0.00  0.00    +0.010 C 
ATOM      7  C   LIG    1       -3.342  -1.479  -1.522  0.00  0.00    +0.010 C 
ATOM      8  C   LIG    1       -1.885  -4.624   0.164  0.00  0.00    -0.020 C 
ATOM      9  C   LIG    1       -0.680  -4.968  -0.712  0.00  0.00    +0.010 C 
ENDROOT
BRANCH   1  10
ATOM     10  C   LIG    1       -1.034  -2.280   0.059  0.00  0.00    +0.020 C 
BRANCH  10  11
ATOM     11  C   LIG    1       -0.423  -2.384   1.458  0.00  0.00    +0.020 C 
BRANCH  11  13
ATOM     12  C   LIG    1        1.653  -1.523   2.785  0.00  0.00    +0.050 C 
ATOM     13  C   LIG    1        0.853  -1.584   1.510  0.00  0.00    +0.350 C 
ATOM     14  O   LIG    1        1.235  -0.993   0.528  0.00  0.00    -0.460 OA
ENDBRANCH  11  13
ENDBRANCH  10  11
ENDBRANCH   1  10
TORSDOF 3
ENDMDL
MODEL        5
REMARK  Name = ZINC000001680754
REMARK                            x       y       z     vdW  Elec       q    Type
REMARK                         _______ _______ _______ _____ _____    ______ ____
ROOT
ATOM      1  C   LIG    1        0.626  -0.618   1.042  0.00  0.00    +0.130 A 
ATOM      2  C   LIG    1        1.202   0.138   2.051  0.00  0.00    -0.080 A 
ATOM      3  C   LIG    1        1.835  -0.489   3.107  0.00  0.00    +0.030 A 
ATOM      4  C   LIG    1        1.895  -1.869   3.158  0.00  0.00    -0.040 A 
ATOM      5  C   LIG    1        1.322  -2.626   2.152  0.00  0.00    +0.050 A 
ATOM      6  C   LIG    1        0.682  -2.004   1.098  0.00  0.00    -0.110 A 
ENDROOT
BRANCH   6   7
ATOM      7  C   LIG    1        0.057  -2.829   0.002  0.00  0.00    +0.040 C 
ATOM      8  C   LIG    1        1.134  -3.683  -0.670  0.00  0.00    +0.010 C 
ATOM      9  C   LIG    1        0.499  -4.521  -1.782  0.00  0.00    +0.000 C 
ATOM     10  C   LIG    1       -0.575  -5.432  -1.185  0.00  0.00    +0.000 C 
ATOM     11  C   LIG    1       -1.652  -4.577  -0.512  0.00  0.00    +0.000 C 
ATOM     12  C   LIG    1       -1.017  -3.740   0.600  0.00  0.00    +0.010 C 
ENDBRANCH   6   7
BRANCH   1  14
ATOM     13  C   LIG    1       -0.017   1.425   0.010  0.00  0.00    +0.250 C 
ATOM     14  O   LIG    1        0.002  -0.004   0.002  0.00  0.00    -0.310 OA
ENDBRANCH   1  14
TORSDOF 2
ENDMDL
MODEL        6
REMARK  Name = ZINC000005309013
REMARK                            x       y       z     vdW  Elec       q    Type
REMARK                         _______ _______ _______ _____ _____    ______ ____
ROOT
ATOM      1  N   LIG    1        1.523  -4.012   2.465  0.00  0.00    -0.480 N 
ATOM      2  C   LIG    1        0.619  -4.814   3.107  0.00  0.00    +0.220 A 
ATOM      3  C   LIG    1        0.922  -6.105   2.897  0.00  0.00    -0.060 A 
ATOM      4  C   LIG    1        2.119  -6.132   2.052  0.00  0.00    -0.110 A 
ATOM      5  C   LIG    1        2.898  -7.153   1.506  0.00  0.00    +0.050 A 
ATOM      6  C   LIG    1        3.984  -6.841   0.738  0.00  0.00    -0.030 A 
ATOM      7  C   LIG    1        4.319  -5.516   0.495  0.00  0.00    +0.020 A 
ATOM      8  C   LIG    1        3.563  -4.492   1.025  0.00  0.00    -0.010 A 
ATOM      9  C   LIG    1        2.450  -4.787   1.805  0.00  0.00    +0.100 A 
ENDROOT
BRANCH   1  10
ATOM     10  C   LIG    1        1.503  -2.548   2.473  0.00  0.00    +0.280 C 
BRANCH  10  11
ATOM     11  C   LIG    1        0.763  -2.041   1.233  0.00  0.00    +0.000 C 
BRANCH  11  12
ATOM     12  C   LIG    1        0.742  -0.511   1.242  0.00  0.00    +0.020 C 
BRANCH  12  14
ATOM     13  C   LIG    1       -0.019   1.526   0.010  0.00  0.00    +0.010 C 
ATOM     14  C   LIG    1        0.002  -0.004   0.002  0.00  0.00    +0.000 C 
ENDBRANCH  12  14
ENDBRANCH  11  12
ENDBRANCH  10  11
ENDBRANCH   1  10
TORSDOF 4
ENDMDL
MODEL        7
REMARK  Name = ZINC000001706555
REMARK                            x       y       z     vdW  Elec       q    Type
REMARK                         _______ _______ _______ _____ _____    ______ ____
ROOT
ATOM      1  C   LIG    1       -0.018   1.503   0.010  0.00  0.00    +0.100 C 
ATOM      2  C   LIG    1        0.002  -0.004   0.002  0.00  0.00    -0.070 A 
ATOM      3  C   LIG    1        0.006  -0.689  -1.196  0.00  0.00    +0.000 A 
ATOM      4  C   LIG    1        0.025  -2.072  -1.205  0.00  0.00    +0.000 A 
ATOM      5  C   LIG    1        0.040  -2.778  -0.015  0.00  0.00    -0.010 A 
ATOM      6  C   LIG    1        0.036  -2.105   1.190  0.00  0.00    +0.020 A 
ATOM      7  C   LIG    1        0.023  -0.710   1.206  0.00  0.00    -0.040 A 
ENDROOT
BRANCH   7   8
ATOM      8  C   LIG    1        0.019   0.018   2.493  0.00  0.00    -0.100 C 
ATOM      9  C   LIG    1        1.064   0.646   3.002  0.00  0.00    -0.030 C 
ATOM     10  C   LIG    1        0.715   1.284   4.327  0.00  0.00    +0.050 C 
ATOM     11  C   LIG    1       -0.831   1.307   4.359  0.00  0.00    +0.020 C 
ATOM     12  C   LIG    1       -1.182   0.148   3.401  0.00  0.00    +0.060 C 
ENDBRANCH   7   8
TORSDOF 1
ENDMDL
MODEL        8
REMARK  Name = ZINC000005417874
REMARK                            x       y       z     vdW  Elec       q    Type
REMARK                         _______ _______ _______ _____ _____    ______ ____
ROOT
ATOM      1  C   LIG    1        1.476  -4.028  -2.532  0.00  0.00    +0.400 C 
ATOM      2  O   LIG    1        0.968  -4.646  -1.621  0.00  0.00    -0.450 OA
ENDROOT
BRANCH   1   3
ATOM      3  C   LIG    1        2.112  -4.749  -3.646  0.00  0.00    -0.180 A 
ATOM      4  C   LIG    1        2.704  -4.039  -4.696  0.00  0.00    +0.060 A 
ATOM      5  C   LIG    1        3.299  -4.722  -5.736  0.00  0.00    -0.010 A 
ATOM      6  C   LIG    1        3.310  -6.106  -5.743  0.00  0.00    -0.050 A 
ATOM      7  C   LIG    1        2.726  -6.816  -4.708  0.00  0.00    +0.000 A 
ATOM      8  C   LIG    1        3.962  -6.845  -6.883  0.00  0.00    +0.100 C 
ATOM      9  C   LIG    1        2.133  -6.147  -3.657  0.00  0.00    +0.070 A 
ENDBRANCH   1   3
BRANCH   1  10
ATOM     10  C   LIG    1        1.455  -2.521  -2.524  0.00  0.00    +0.030 C 
BRANCH  10  11
ATOM     11  C   LIG    1        0.739  -2.027  -1.265  0.00  0.00    +0.030 C 
BRANCH  11  12
ATOM     12  C   LIG    1        0.718  -0.497  -1.257  0.00  0.00    +0.000 C 
BRANCH  12  14
ATOM     13  C   LIG    1       -0.019   1.526   0.010  0.00  0.00    +0.000 C 
ATOM     14  C   LIG    1        0.002  -0.004   0.002  0.00  0.00    -0.010 C 
ENDBRANCH  12  14
ENDBRANCH  11  12
ENDBRANCH  10  11
ENDBRANCH   1  10
TORSDOF 5
ENDMDL
MODEL        9
REMARK  Name = ZINC000001720714
REMARK                            x       y       z     vdW  Elec       q    Type
REMARK                         _______ _______ _______ _____ _____    ______ ____
ROOT
ATOM      1 CL   LIG    1        0.002  -0.004   0.002  0.00  0.00    -0.110 Cl
ATOM      2  C   LIG    1       -0.022   1.806   0.012  0.00  0.00    -0.020 C 
ATOM      3  C   LIG    1        0.565   2.496   1.328  0.00  0.00    +0.000 C 
ATOM      4  C   LIG    1       -0.656   3.243   1.938  0.00  0.00    +0.070 C 
ATOM      5  C   LIG    1       -0.321   4.776   1.879  0.00  0.00    +0.050 C 
ATOM      6  C   LIG    1       -0.408   5.264   0.511  0.00  0.00    -0.070 C 
ATOM      7  C   LIG    1       -0.134   5.077  -0.879  0.00  0.00    +0.090 C 
ATOM      8  C   LIG    1        1.344   4.790  -0.984  0.00  0.00    -0.010 C 
ATOM      9  C   LIG    1        1.930   3.659  -0.592  0.00  0.00    -0.020 C 
ATOM     10 CL   LIG    1       -1.474   2.549  -0.740  0.00  0.00    -0.070 Cl
ATOM     11  C   LIG    1        1.258   2.487   0.003  0.00  0.00    +0.070 C 
ENDROOT
TORSDOF 0
ENDMDL
MODEL       10
REMARK  Name = ZINC000001720716
REMARK                            x       y       z     vdW  Elec       q    Type
REMARK                         _______ _______ _______ _____ _____    ______ ____
ROOT
ATOM      1 CL   LIG    1        0.002  -0.004   0.002  0.00  0.00    -0.090 Cl
ATOM      2  C   LIG    1       -0.022   1.800   0.012  0.00  0.00    +0.020 C 
ATOM      3  C   LIG    1        0.466   2.496   1.254  0.00  0.00    +0.010 C 
ATOM      4  C   LIG    1        0.743   1.972   2.577  0.00  0.00    -0.010 C 
ATOM      5  C   LIG    1        1.972   2.194   3.124  0.00  0.00    -0.010 C 
ATOM      6  C   LIG    1        2.954   2.963   2.224  0.00  0.00    +0.030 C 
ATOM      7  C   LIG    1        2.347   4.362   1.925  0.00  0.00    +0.030 C 
ATOM      8  C   LIG    1        2.579   4.523   0.410  0.00  0.00    +0.000 C 
ATOM      9  C   LIG    1        1.444   4.005  -0.451  0.00  0.00    +0.070 C 
ATOM     10 CL   LIG    1       -1.387   2.560  -0.890  0.00  0.00    -0.100 Cl
ATOM     11  C   LIG    1        1.314   2.520   0.003  0.00  0.00    +0.040 C 
ENDROOT
TORSDOF 0
ENDMDL
MODEL       11
REMARK  Name = ZINC000004918165
REMARK                            x       y       z     vdW  Elec       q    Type
REMARK                         _______ _______ _______ _____ _____    ______ ____
ROOT
ATOM      1  C   LIG    1       -1.200  -0.637   0.010  0.00  0.00    +0.140 A 
ATOM      2  C   LIG    1       -2.373   0.099   0.019  0.00  0.00    -0.080 A 
ATOM      3  C   LIG    1       -3.596  -0.547   0.028  0.00  0.00    +0.040 A 
ATOM      4  C   LIG    1       -3.656  -1.929   0.027  0.00  0.00    -0.030 A 
ATOM      5  C   LIG    1       -2.496  -2.676   0.018  0.00  0.00    +0.060 A 
ATOM      6  C   LIG    1       -1.257  -2.036   0.003  0.00  0.00    -0.080 A 
ENDROOT
BRANCH   6   7
ATOM      7  C   LIG    1       -0.011  -2.830  -0.007  0.00  0.00    -0.080 C 
ATOM      8  C   LIG    1        0.661  -2.909  -1.130  0.00  0.00    -0.030 C 
ATOM      9  C   LIG    1        1.935  -3.687  -1.288  0.00  0.00    +0.050 C 
ATOM     10  C   LIG    1        2.539  -3.994   0.084  0.00  0.00    +0.000 C 
ATOM     11  C   LIG    1        1.443  -4.590   0.975  0.00  0.00    +0.010 C 
ATOM     12  C   LIG    1        0.413  -3.495   1.270  0.00  0.00    +0.060 C 
ENDBRANCH   6   7
BRANCH   1  14
ATOM     13  C   LIG    1       -0.017   1.425   0.010  0.00  0.00    +0.240 C 
ATOM     14  O   LIG    1        0.002  -0.004   0.002  0.00  0.00    -0.310 OA
ENDBRANCH   1  14
TORSDOF 2
ENDMDL
MODEL       12
REMARK  Name = ZINC000001868425
REMARK                            x       y       z     vdW  Elec       q    Type
REMARK                         _______ _______ _______ _____ _____    ______ ____
ROOT
ATOM      1  C   LIG    1       -1.656  -2.571  -1.269  0.00  0.00    +0.010 C 
ENDROOT
BRANCH   1   2
ATOM      2  C   LIG    1       -1.754  -4.098  -1.254  0.00  0.00    -0.010 C 
ATOM      3  C   LIG    1       -1.029  -4.668  -2.474  0.00  0.00    +0.020 C 
BRANCH   2   4
ATOM      4  C   LIG    1       -3.226  -4.514  -1.295  0.00  0.00    -0.020 C 
BRANCH   4   5
ATOM      5  C   LIG    1       -3.330  -6.035  -1.155  0.00  0.00    +0.200 C 
ATOM      6  C   LIG    1       -4.789  -6.464  -1.321  0.00  0.00    +0.000 C 
BRANCH   5   7
ATOM      7  O   LIG    1       -2.862  -6.426   0.137  0.00  0.00    -0.560 OA
ATOM      8  H   LIG    1       -3.359  -6.038   0.870  0.00  0.00    +0.370 HD
ENDBRANCH   5   7
ENDBRANCH   4   5
ENDBRANCH   2   4
ENDBRANCH   1   2
BRANCH   1   9
ATOM      9  C   LIG    1       -0.194  -2.152  -1.102  0.00  0.00    +0.050 C 
BRANCH   9  12
ATOM     10  C   LIG    1       -0.121   1.526  -0.007  0.00  0.00    +0.060 C 
ATOM     11  C   LIG    1       -0.101   0.019   0.010  0.00  0.00    -0.140 C 
ATOM     12  C   LIG    1       -0.097  -0.648  -1.117  0.00  0.00    -0.140 C 
ATOM     13  C   LIG    1        0.004   0.087  -2.428  0.00  0.00    +0.070 C 
ATOM     14  C   LIG    1       -0.086  -0.720   1.324  0.00  0.00    +0.060 C 
ENDBRANCH   9  12
ENDBRANCH   1   9
TORSDOF 6
ENDMDL
MODEL       13
REMARK  Name = ZINC000001868422
REMARK                            x       y       z     vdW  Elec       q    Type
REMARK                         _______ _______ _______ _____ _____    ______ ____
ROOT
ATOM      1  C   LIG    1       -2.155  -3.142  -1.536  0.00  0.00    +0.010 C 
ENDROOT
BRANCH   1   2
ATOM      2  C   LIG    1       -2.191  -4.611  -1.110  0.00  0.00    -0.010 C 
ATOM      3  C   LIG    1       -1.415  -5.455  -2.124  0.00  0.00    +0.010 C 
BRANCH   2   4
ATOM      4  C   LIG    1       -3.642  -5.090  -1.052  0.00  0.00    -0.010 C 
BRANCH   4   5
ATOM      5  C   LIG    1       -4.381  -4.348   0.063  0.00  0.00    +0.200 C 
ATOM      6  C   LIG    1       -5.855  -4.755   0.058  0.00  0.00    +0.000 C 
BRANCH   5   7
ATOM      7  O   LIG    1       -3.799  -4.682   1.324  0.00  0.00    -0.560 OA
ATOM      8  H   LIG    1       -3.835  -5.625   1.537  0.00  0.00    +0.370 HD
ENDBRANCH   5   7
ENDBRANCH   4   5
ENDBRANCH   2   4
ENDBRANCH   1   2
BRANCH   1   9
ATOM      9  C   LIG    1       -0.715  -2.628  -1.474  0.00  0.00    +0.060 C 
BRANCH   9  12
ATOM     10  C   LIG    1       -0.831   1.209  -1.414  0.00  0.00    +0.060 C 
ATOM     11  C   LIG    1       -0.745  -0.235  -0.990  0.00  0.00    -0.140 C 
ATOM     12  C   LIG    1       -0.680  -1.181  -1.893  0.00  0.00    -0.140 C 
ATOM     13  C   LIG    1       -0.571  -0.822  -3.353  0.00  0.00    +0.060 C 
ATOM     14  C   LIG    1       -0.734  -0.590   0.475  0.00  0.00    +0.070 C 
ENDBRANCH   9  12
ENDBRANCH   1   9
TORSDOF 6
ENDMDL
MODEL       14
REMARK  Name = ZINC000001868426
REMARK                            x       y       z     vdW  Elec       q    Type
REMARK                         _______ _______ _______ _____ _____    ______ ____
ROOT
ATOM      1  C   LIG    1       -1.395  -2.723  -1.373  0.00  0.00    +0.010 C 
ENDROOT
BRANCH   1   2
ATOM      2  C   LIG    1       -1.694  -4.220  -1.261  0.00  0.00    -0.010 C 
ATOM      3  C   LIG    1       -1.400  -4.693   0.164  0.00  0.00    +0.010 C 
BRANCH   2   4
ATOM      4  C   LIG    1       -3.167  -4.471  -1.588  0.00  0.00    -0.010 C 
BRANCH   4   5
ATOM      5  C   LIG    1       -3.428  -4.133  -3.057  0.00  0.00    +0.200 C 
ATOM      6  C   LIG    1       -4.919  -4.296  -3.361  0.00  0.00    +0.000 C 
BRANCH   5   7
ATOM      7  O   LIG    1       -2.674  -5.015  -3.891  0.00  0.00    -0.560 OA
ATOM      8  H   LIG    1       -2.889  -5.950  -3.771  0.00  0.00    +0.370 HD
ENDBRANCH   5   7
ENDBRANCH   4   5
ENDBRANCH   2   4
ENDBRANCH   1   2
BRANCH   1   9
ATOM      9  C   LIG    1        0.102  -2.485  -1.169  0.00  0.00    +0.050 C 
BRANCH   9  12
ATOM     10  C   LIG    1        0.617   1.223  -0.319  0.00  0.00    +0.070 C 
ATOM     11  C   LIG    1        0.437  -0.269  -0.201  0.00  0.00    -0.140 C 
ATOM     12  C   LIG    1        0.396  -1.012  -1.279  0.00  0.00    -0.140 C 
ATOM     13  C   LIG    1        0.643  -0.392  -2.630  0.00  0.00    +0.070 C 
ATOM     14  C   LIG    1        0.305  -0.906   1.159  0.00  0.00    +0.070 C 
ENDBRANCH   9  12
ENDBRANCH   1   9
TORSDOF 6
ENDMDL
MODEL       15
REMARK  Name = ZINC000001868424
REMARK                            x       y       z     vdW  Elec       q    Type
REMARK                         _______ _______ _______ _____ _____    ______ ____
ROOT
ATOM      1  C   LIG    1       -1.656  -2.571  -1.267  0.00  0.00    +0.010 C 
ENDROOT
BRANCH   1   2
ATOM      2  C   LIG    1       -1.754  -4.098  -1.251  0.00  0.00    -0.010 C 
ATOM      3  C   LIG    1       -1.337  -4.621   0.124  0.00  0.00    +0.020 C 
BRANCH   2   4
ATOM      4  C   LIG    1       -3.196  -4.519  -1.542  0.00  0.00    -0.020 C 
BRANCH   4   5
ATOM      5  C   LIG    1       -3.270  -6.043  -1.650  0.00  0.00    +0.200 C 
ATOM      6  C   LIG    1       -4.729  -6.473  -1.816  0.00  0.00    +0.000 C 
BRANCH   5   7
ATOM      7  O   LIG    1       -2.513  -6.478  -2.782  0.00  0.00    -0.560 OA
ATOM      8  H   LIG    1       -2.823  -6.117  -3.624  0.00  0.00    +0.370 HD
ENDBRANCH   5   7
ENDBRANCH   4   5
ENDBRANCH   2   4
ENDBRANCH   1   2
BRANCH   1   9
ATOM      9  C   LIG    1       -0.194  -2.152  -1.101  0.00  0.00    +0.040 C 
BRANCH   9  12
ATOM     10  C   LIG    1       -0.121   1.527  -0.007  0.00  0.00    +0.060 C 
ATOM     11  C   LIG    1       -0.101   0.020   0.011  0.00  0.00    -0.140 C 
ATOM     12  C   LIG    1       -0.097  -0.648  -1.116  0.00  0.00    -0.140 C 
ATOM     13  C   LIG    1        0.004   0.087  -2.428  0.00  0.00    +0.070 C 
ATOM     14  C   LIG    1       -0.086  -0.718   1.325  0.00  0.00    +0.060 C 
ENDBRANCH   9  12
ENDBRANCH   1   9
TORSDOF 6
ENDMDL
MODEL       16
REMARK  Name = ZINC000005551387
REMARK                            x       y       z     vdW  Elec       q    Type
REMARK                         _______ _______ _______ _____ _____    ______ ____
ROOT
ATOM      1  C   LIG    1        2.512  -3.177  -2.942  0.00  0.00    +0.130 C 
ATOM      2  C   LIG    1        3.295  -3.678  -1.727  0.00  0.00    +0.050 C 
ENDROOT
BRANCH   1   3
ATOM      3  O   LIG    1        1.122  -3.456  -2.761  0.00  0.00    -0.550 OA
ATOM      4  H   LIG    1        0.564  -3.165  -3.495  0.00  0.00    +0.370 HD
ENDBRANCH   1   3
BRANCH   1   5
ATOM      5  C   LIG    1        2.714  -1.668  -3.092  0.00  0.00    -0.010 C 
BRANCH   5   6
ATOM      6  C   LIG    1        2.328  -0.969  -1.787  0.00  0.00    +0.020 C 
BRANCH   6   7
ATOM      7  C   LIG    1        2.530   0.540  -1.938  0.00  0.00    +0.000 C 
BRANCH   7   9
ATOM      8  C   LIG    1        2.346   2.748  -0.783  0.00  0.00    +0.000 C 
ATOM      9  C   LIG    1        2.144   1.239  -0.633  0.00  0.00    -0.010 C 
ENDBRANCH   7   9
ENDBRANCH   6   7
ENDBRANCH   5   6
ENDBRANCH   1   5
BRANCH   1  10
ATOM     10  C   LIG    1        3.015  -3.887  -4.200  0.00  0.00    -0.010 C 
BRANCH  10  11
ATOM     11  C   LIG    1        2.661  -5.374  -4.123  0.00  0.00    -0.060 C 
ATOM     12  C   LIG    1        3.234  -5.969  -2.836  0.00  0.00    +0.020 C 
ATOM     13  C   LIG    1        3.254  -6.103  -5.330  0.00  0.00    +0.010 C 
ATOM     14  C   LIG    1        1.139  -5.537  -4.127  0.00  0.00    +0.020 C 
ENDBRANCH  10  11
ENDBRANCH   1  10
TORSDOF 7
ENDMDL
MODEL       17
REMARK  Name = ZINC000002389880
REMARK                            x       y       z     vdW  Elec       q    Type
REMARK                         _______ _______ _______ _____ _____    ______ ____
ROOT
ATOM      1  C   LIG    1       -1.413  -2.041   0.005  0.00  0.00    -0.050 C 
ATOM      2  C   LIG    1       -2.046  -2.709   0.936  0.00  0.00    -0.050 C 
ENDROOT
BRANCH   1   3
ATOM      3  C   LIG    1       -1.433  -0.534   0.013  0.00  0.00    +0.040 C 
BRANCH   3   5
ATOM      4  C   LIG    1       -0.019   1.526   0.010  0.00  0.00    +0.000 C 
ATOM      5  C   LIG    1        0.002  -0.004   0.002  0.00  0.00    +0.000 C 
ENDBRANCH   3   5
ENDBRANCH   1   3
BRANCH   2   6
ATOM      6  C   LIG    1       -2.025  -4.216   0.928  0.00  0.00    +0.040 C 
BRANCH   6   7
ATOM      7  C   LIG    1       -1.512  -4.727   2.276  0.00  0.00    +0.000 C 
BRANCH   7   8
ATOM      8  C   LIG    1       -1.491  -6.256   2.268  0.00  0.00    +0.000 C 
BRANCH   8   9
ATOM      9  C   LIG    1       -0.978  -6.767   3.616  0.00  0.00    -0.010 C 
ATOM     10  C   LIG    1       -0.958  -8.297   3.607  0.00  0.00    +0.000 C 
ENDBRANCH   8   9
ENDBRANCH   7   8
ENDBRANCH   6   7
ENDBRANCH   2   6
TORSDOF 6
ENDMDL
MODEL       18
REMARK  Name = ZINC000002504800
REMARK                            x       y       z     vdW  Elec       q    Type
REMARK                         _______ _______ _______ _____ _____    ______ ____
ROOT
ATOM      1  C   LIG    1        2.430  -1.795  -2.374  0.00  0.00    +0.050 C 
ENDROOT
BRANCH   1   3
ATOM      2  C   LIG    1        0.707  -0.490  -1.238  0.00  0.00    -0.050 C 
ATOM      3  C   LIG    1        1.725  -1.309  -1.134  0.00  0.00    -0.050 C 
BRANCH   2   5
ATOM      4  C   LIG    1       -0.019   1.526   0.010  0.00  0.00    +0.010 C 
ATOM      5  C   LIG    1        0.002  -0.004   0.002  0.00  0.00    +0.030 C 
ENDBRANCH   2   5
ENDBRANCH   1   3
BRANCH   1   6
ATOM      6  C   LIG    1        3.924  -1.480  -2.268  0.00  0.00    +0.050 C 
BRANCH   6   7
ATOM      7  C   LIG    1        4.629  -1.966  -3.508  0.00  0.00    -0.050 C 
ATOM      8  C   LIG    1        5.357  -1.137  -4.215  0.00  0.00    -0.050 C 
BRANCH   8   9
ATOM      9  C   LIG    1        6.062  -1.623  -5.454  0.00  0.00    +0.030 C 
ATOM     10  C   LIG    1        5.661  -0.750  -6.645  0.00  0.00    +0.010 C 
ENDBRANCH   8   9
ENDBRANCH   6   7
ENDBRANCH   1   6
TORSDOF 5
ENDMDL
MODEL       19
REMARK  Name = ZINC000005599295
REMARK                            x       y       z     vdW  Elec       q    Type
REMARK                         _______ _______ _______ _____ _____    ______ ____
ROOT
ATOM      1  C   LIG    1        0.938  -0.420   4.045  0.00  0.00    -0.080 A 
ATOM      2  C   LIG    1        2.233  -0.829   3.751  0.00  0.00    -0.010 A 
ATOM      3  C   LIG    1        3.114  -1.115   4.776  0.00  0.00    +0.030 A 
ATOM      4  C   LIG    1        2.709  -0.995   6.092  0.00  0.00    +0.000 A 
ATOM      5  C   LIG    1        1.420  -0.588   6.388  0.00  0.00    +0.030 A 
ATOM      6  C   LIG    1        0.536  -0.294   5.369  0.00  0.00    +0.030 A 
ENDROOT
BRANCH   1   7
ATOM      7  S   LIG    1       -0.189  -0.054   2.741  0.00  0.00    -0.110 S 
BRANCH   7   8
ATOM      8  C   LIG    1        0.727  -0.554   1.257  0.00  0.00    +0.010 C 
ATOM      9  C   LIG    1        0.839  -2.080   1.217  0.00  0.00    +0.050 C 
BRANCH   8  11
ATOM     10  C   LIG    1       -0.017   1.465  -0.012  0.00  0.00    +0.030 C 
ATOM     11  C   LIG    1       -0.014  -0.065   0.011  0.00  0.00    +0.050 C 
ENDBRANCH   8  11
ENDBRANCH   7   8
ENDBRANCH   1   7
TORSDOF 3
ENDMDL
MODEL       20
REMARK  Name = ZINC000005139180
REMARK                            x       y       z     vdW  Elec       q    Type
REMARK                         _______ _______ _______ _____ _____    ______ ____
ROOT
ATOM      1  C   LIG    1        1.342  -2.647  -2.321  0.00  0.00    +0.220 A 
ATOM      2  C   LIG    1        1.932  -1.926  -3.367  0.00  0.00    -0.050 A 
ATOM      3  C   LIG    1        2.527  -2.566  -4.408  0.00  0.00    +0.070 A 
ATOM      4  C   LIG    1        2.555  -3.970  -4.443  0.00  0.00    -0.100 A 
ATOM      5  C   LIG    1        3.164  -4.659  -5.506  0.00  0.00    +0.030 A 
ATOM      6  C   LIG    1        3.175  -6.020  -5.510  0.00  0.00    -0.020 A 
ATOM      7  C   LIG    1        2.591  -6.745  -4.474  0.00  0.00    +0.020 A 
ATOM      8  C   LIG    1        1.992  -6.114  -3.428  0.00  0.00    -0.010 A 
ATOM      9  C   LIG    1        1.961  -4.709  -3.389  0.00  0.00    +0.000 A 
ATOM     10  C   LIG    1        1.357  -4.024  -2.322  0.00  0.00    -0.090 A 
ENDROOT
BRANCH   1  11
ATOM     11  N   LIG    1        0.738  -1.962  -1.265  0.00  0.00    -0.750 N 
ATOM     12  H   LIG    1        0.332  -2.457  -0.536  0.00  0.00    +0.400 HD
BRANCH  11  13
ATOM     13  C   LIG    1        0.718  -0.497  -1.257  0.00  0.00    +0.240 C 
BRANCH  13  15
ATOM     14  C   LIG    1       -0.019   1.526   0.010  0.00  0.00    +0.030 C 
ATOM     15  C   LIG    1        0.002  -0.004   0.002  0.00  0.00    +0.000 C 
ENDBRANCH  13  15
ENDBRANCH  11  13
ENDBRANCH   1  11
TORSDOF 3
ENDMDL
MODEL       21
REMARK  Name = ZINC000002510720
REMARK                            x       y       z     vdW  Elec       q    Type
REMARK                         _______ _______ _______ _____ _____    ______ ____
ROOT
ATOM      1  C   LIG    1       -0.722   1.881   1.250  0.00  0.00    -0.160 A 
ATOM      2  C   LIG    1       -1.222   0.971   2.162  0.00  0.00    +0.090 A 
ATOM      3  C   LIG    1       -1.869   1.417   3.300  0.00  0.00    +0.020 A 
ATOM      4  C   LIG    1       -2.017   2.772   3.525  0.00  0.00    +0.060 A 
ATOM      5  C   LIG    1       -1.518   3.683   2.613  0.00  0.00    +0.040 A 
ATOM      6  C   LIG    1       -0.865   3.238   1.477  0.00  0.00    +0.000 A 
ATOM      7 CL   LIG    1       -0.238   4.382   0.332  0.00  0.00    -0.040 Cl
ENDROOT
BRANCH   1   9
ATOM      8  F   LIG    1        0.002  -0.004   0.002  0.00  0.00    -0.160 F 
ATOM      9  C   LIG    1       -0.017   1.395   0.010  0.00  0.00    +0.400 C 
ATOM     10 CL   LIG    1       -0.889   1.992  -1.451  0.00  0.00    -0.110 Cl
ATOM     11  F   LIG    1        1.296   1.879  -0.000  0.00  0.00    -0.150 F 
ENDBRANCH   1   9
TORSDOF 1
ENDMDL
MODEL       22
REMARK  Name = ZINC000002540458
REMARK                            x       y       z     vdW  Elec       q    Type
REMARK                         _______ _______ _______ _____ _____    ______ ____
ROOT
ATOM      1  C   LIG    1       -0.018   1.503   0.010  0.00  0.00    +0.110 C 
ATOM      2  C   LIG    1        0.002  -0.004   0.002  0.00  0.00    -0.050 A 
ATOM      3  C   LIG    1        0.006  -0.689  -1.197  0.00  0.00    +0.040 A 
ATOM      4  C   LIG    1        0.024  -2.072  -1.206  0.00  0.00    +0.030 A 
ATOM      5  C   LIG    1        0.039  -2.774  -0.014  0.00  0.00    +0.030 A 
ATOM      6  C   LIG    1        0.035  -2.096   1.189  0.00  0.00    +0.010 A 
ATOM      7  C   LIG    1        0.023  -0.706   1.201  0.00  0.00    -0.110 A 
ENDROOT
BRANCH   7   8
ATOM      8  S   LIG    1        0.019   0.163   2.734  0.00  0.00    -0.020 S 
BRANCH   8   9
ATOM      9  C   LIG    1        0.034  -1.173   3.961  0.00  0.00    +0.440 C 
ATOM     10  F   LIG    1       -1.101  -1.973   3.794  0.00  0.00    -0.160 F 
ATOM     11  F   LIG    1        0.032  -0.624   5.248  0.00  0.00    -0.150 F 
ATOM     12  F   LIG    1        1.183  -1.952   3.788  0.00  0.00    -0.160 F 
ENDBRANCH   8   9
ENDBRANCH   7   8
TORSDOF 2
ENDMDL
MODEL       23
REMARK  Name = ZINC000002545210
REMARK                            x       y       z     vdW  Elec       q    Type
REMARK                         _______ _______ _______ _____ _____    ______ ____
ROOT
ATOM      1  C   LIG    1        2.074  -4.184   1.068  0.00  0.00    +0.060 C 
ENDROOT
BRANCH   1   2
ATOM      2  C   LIG    1        3.497  -4.668   1.176  0.00  0.00    -0.080 A 
ATOM      3  C   LIG    1        4.244  -4.877   0.032  0.00  0.00    +0.000 A 
ATOM      4  C   LIG    1        5.550  -5.320   0.131  0.00  0.00    +0.000 A 
ATOM      5  C   LIG    1        6.108  -5.555   1.373  0.00  0.00    -0.010 A 
ATOM      6  C   LIG    1        5.361  -5.345   2.517  0.00  0.00    +0.000 A 
ATOM      7  C   LIG    1        4.057  -4.898   2.419  0.00  0.00    +0.000 A 
ENDBRANCH   1   2
BRANCH   1   8
ATOM      8  C   LIG    1        2.053  -2.654   1.077  0.00  0.00    +0.010 C 
BRANCH   8   9
ATOM      9  C   LIG    1        0.608  -2.163   0.967  0.00  0.00    +0.050 C 
BRANCH   9  12
ATOM     10  C   LIG    1       -0.018   1.503   0.010  0.00  0.00    +0.050 C 
ATOM     11  C   LIG    1        0.002  -0.004   0.002  0.00  0.00    -0.050 C 
ATOM     12  C   LIG    1        0.588  -0.657   0.976  0.00  0.00    -0.050 C 
ENDBRANCH   9  12
ENDBRANCH   8   9
ENDBRANCH   1   8
TORSDOF 4
ENDMDL
MODEL       24
REMARK  Name = ZINC000005734040
REMARK                            x       y       z     vdW  Elec       q    Type
REMARK                         _______ _______ _______ _____ _____    ______ ____
ROOT
ATOM      1  C   LIG    1        2.175  -1.806   0.058  0.00  0.00    -0.070 C 
ATOM      2  C   LIG    1        3.213  -2.634   0.017  0.00  0.00    -0.110 C 
ENDROOT
BRANCH   1   4
ATOM      3  C   LIG    1        0.999  -2.080  -2.046  0.00  0.00    -0.030 C 
ATOM      4  C   LIG    1        1.612  -1.269  -1.190  0.00  0.00    -0.090 C 
BRANCH   3   6
ATOM      5  C   LIG    1       -0.702  -3.865  -1.778  0.00  0.00    +0.000 C 
ATOM      6  C   LIG    1        0.789  -3.529  -1.692  0.00  0.00    +0.050 C 
ENDBRANCH   3   6
BRANCH   4   7
ATOM      7  C   LIG    1        1.730   0.202  -1.498  0.00  0.00    +0.060 C 
ATOM      8  C   LIG    1        0.565   0.954  -0.853  0.00  0.00    +0.030 C 
ENDBRANCH   4   7
ENDBRANCH   1   4
BRANCH   2   9
ATOM      9  C   LIG    1        3.903  -2.912  -1.294  0.00  0.00    +0.060 C 
ATOM     10  C   LIG    1        5.098  -1.970  -1.451  0.00  0.00    +0.020 C 
ENDBRANCH   2   9
BRANCH   1  11
ATOM     11  C   LIG    1        1.573  -1.418   1.385  0.00  0.00    +0.060 C 
ATOM     12  C   LIG    1        0.381  -2.327   1.690  0.00  0.00    +0.030 C 
ENDBRANCH   1  11
BRANCH   2  13
ATOM     13  C   LIG    1        3.701  -3.295   1.280  0.00  0.00    +0.220 C 
BRANCH  13  14
ATOM     14  O   LIG    1        3.743  -4.711   1.091  0.00  0.00    -0.570 OA
ATOM     15  H   LIG    1        4.049  -5.202   1.866  0.00  0.00    +0.380 HD
ENDBRANCH  13  14
ENDBRANCH   2  13
TORSDOF 7
ENDMDL
MODEL       25
REMARK  Name = ZINC000002563439
REMARK                            x       y       z     vdW  Elec       q    Type
REMARK                         _______ _______ _______ _____ _____    ______ ____
ROOT
ATOM      1  C   LIG    1       -0.026  -2.664  -2.302  0.00  0.00    +0.000 C 
ENDROOT
BRANCH   1   2
ATOM      2  C   LIG    1        0.589  -2.153  -0.998  0.00  0.00    +0.040 C 
BRANCH   2   5
ATOM      3  C   LIG    1       -0.018   1.503   0.010  0.00  0.00    +0.050 C 
ATOM      4  C   LIG    1        0.002  -0.004   0.002  0.00  0.00    -0.050 C 
ATOM      5  C   LIG    1        0.569  -0.646  -0.989  0.00  0.00    -0.050 C 
ENDBRANCH   2   5
ENDBRANCH   1   2
BRANCH   1   6
ATOM      6  C   LIG    1       -0.005  -4.194  -2.310  0.00  0.00    +0.000 C 
BRANCH   6   7
ATOM      7  C   LIG    1       -0.620  -4.705  -3.615  0.00  0.00    +0.040 C 
BRANCH   7   8
ATOM      8  C   LIG    1       -0.600  -6.212  -3.623  0.00  0.00    -0.050 C 
ATOM      9  C   LIG    1       -1.710  -6.881  -3.813  0.00  0.00    -0.050 C 
ATOM     10  C   LIG    1       -1.690  -8.388  -3.821  0.00  0.00    +0.050 C 
ENDBRANCH   7   8
ENDBRANCH   6   7
ENDBRANCH   1   6
TORSDOF 5
ENDMDL
MODEL       26
REMARK  Name = ZINC000002572903
REMARK                            x       y       z     vdW  Elec       q    Type
REMARK                         _______ _______ _______ _____ _____    ______ ____
ROOT
ATOM      1  C   LIG    1       -0.000  -0.733  -1.276  0.00  0.00    -0.180 A 
ATOM      2  C   LIG    1       -0.015  -0.031  -2.486  0.00  0.00    +0.060 A 
ATOM      3  C   LIG    1       -0.017  -0.721  -3.679  0.00  0.00    +0.000 A 
ATOM      4  C   LIG    1       -0.005  -2.105  -3.683  0.00  0.00    -0.040 A 
ATOM      5  C   LIG    1        0.010  -2.807  -2.490  0.00  0.00    +0.000 A 
ATOM      6  C   LIG    1        0.019  -2.131  -1.288  0.00  0.00    +0.070 A 
ENDROOT
BRANCH   4   7
ATOM      7  C   LIG    1       -0.007  -2.851  -4.992  0.00  0.00    +0.030 C 
ATOM      8  C   LIG    1        1.187  -3.836  -5.057  0.00  0.00    +0.020 C 
ATOM      9  C   LIG    1        0.708  -4.886  -6.090  0.00  0.00    +0.010 C 
ATOM     10  C   LIG    1       -0.796  -5.051  -5.793  0.00  0.00    -0.010 C 
ATOM     11  C   LIG    1       -1.251  -3.758  -5.095  0.00  0.00    +0.020 C 
ENDBRANCH   4   7
BRANCH   1  13
ATOM     12  C   LIG    1       -0.018   1.503   0.010  0.00  0.00    +0.080 C 
ATOM     13  C   LIG    1        0.002  -0.004   0.002  0.00  0.00    +0.390 C 
ATOM     14  O   LIG    1        0.020  -0.616   1.049  0.00  0.00    -0.460 OA
ENDBRANCH   1  13
TORSDOF 2
ENDMDL
MODEL       27
REMARK  Name = ZINC000002579261
REMARK                            x       y       z     vdW  Elec       q    Type
REMARK                         _______ _______ _______ _____ _____    ______ ____
ROOT
ATOM      1  C   LIG    1        0.771  -2.077   5.742  0.00  0.00    +0.000 C 
ENDROOT
BRANCH   1   2
ATOM      2  C   LIG    1        0.031  -1.570   4.503  0.00  0.00    +0.000 C 
BRANCH   2   3
ATOM      3  C   LIG    1        0.874  -1.847   3.256  0.00  0.00    +0.040 C 
BRANCH   3   5
ATOM      4  C   LIG    1        0.731  -0.503   1.223  0.00  0.00    -0.050 C 
ATOM      5  C   LIG    1        0.146  -1.348   2.036  0.00  0.00    -0.050 C 
BRANCH   4   7
ATOM      6  C   LIG    1       -0.019   1.526   0.010  0.00  0.00    +0.010 C 
ATOM      7  C   LIG    1        0.002  -0.004   0.002  0.00  0.00    +0.030 C 
ENDBRANCH   4   7
ENDBRANCH   3   5
ENDBRANCH   2   3
ENDBRANCH   1   2
BRANCH   1   8
ATOM      8  C   LIG    1       -0.072  -1.800   6.989  0.00  0.00    +0.000 C 
BRANCH   8   9
ATOM      9  C   LIG    1        0.668  -2.307   8.228  0.00  0.00    +0.000 C 
BRANCH   9  10
ATOM     10  C   LIG    1       -0.176  -2.030   9.474  0.00  0.00    +0.000 C 
BRANCH  10  11
ATOM     11  C   LIG    1        0.564  -2.537  10.714  0.00  0.00    +0.020 C 
BRANCH  11  12
ATOM     12  C   LIG    1       -0.279  -2.260  11.960  0.00  0.00    +0.150 C 
BRANCH  12  13
ATOM     13  O   LIG    1        0.412  -2.733  13.118  0.00  0.00    -0.580 OA
ATOM     14  H   LIG    1       -0.065  -2.590  13.946  0.00  0.00    +0.380 HD
ENDBRANCH  12  13
ENDBRANCH  11  12
ENDBRANCH  10  11
ENDBRANCH   9  10
ENDBRANCH   8   9
ENDBRANCH   1   8
TORSDOF 10
ENDMDL
MODEL       28
REMARK  Name = ZINC000005820027
REMARK                            x       y       z     vdW  Elec       q    Type
REMARK                         _______ _______ _______ _____ _____    ______ ____
ROOT
ATOM      1  C   LIG    1        1.476  -4.028  -2.532  0.00  0.00    -0.040 C 
ATOM      2  C   LIG    1        0.995  -4.684  -3.559  0.00  0.00    -0.050 C 
ENDROOT
BRANCH   1   3
ATOM      3  C   LIG    1        1.455  -2.521  -2.524  0.00  0.00    +0.050 C 
BRANCH   3   4
ATOM      4  C   LIG    1        0.739  -2.027  -1.265  0.00  0.00    +0.010 C 
BRANCH   4   5
ATOM      5  C   LIG    1        0.718  -0.497  -1.257  0.00  0.00    +0.000 C 
BRANCH   5   7
ATOM      6  C   LIG    1       -0.019   1.526   0.010  0.00  0.00    +0.000 C 
ATOM      7  C   LIG    1        0.002  -0.004   0.002  0.00  0.00    -0.010 C 
ENDBRANCH   5   7
ENDBRANCH   4   5
ENDBRANCH   3   4
ENDBRANCH   1   3
BRANCH   2   8
ATOM      8  C   LIG    1        1.016  -6.190  -3.568  0.00  0.00    +0.080 C 
BRANCH   8   9
ATOM      9  C   LIG    1       -0.400  -6.718  -3.808  0.00  0.00    -0.050 C 
ATOM     10  C   LIG    1       -0.413  -8.258  -3.708  0.00  0.00    +0.040 C 
ATOM     11  C   LIG    1       -1.413  -8.690  -4.810  0.00  0.00    +0.030 C 
ATOM     12  C   LIG    1       -1.125  -7.669  -5.938  0.00  0.00    +0.000 C 
ATOM     13  C   LIG    1       -0.854  -6.364  -5.208  0.00  0.00    +0.370 C 
ATOM     14  O   LIG    1       -0.978  -5.252  -5.662  0.00  0.00    -0.440 OA
ENDBRANCH   8   9
ENDBRANCH   2   8
TORSDOF 6
ENDMDL
MODEL       29
REMARK  Name = ZINC000002600048
REMARK                            x       y       z     vdW  Elec       q    Type
REMARK                         _______ _______ _______ _____ _____    ______ ____
ROOT
ATOM      1  C   LIG    1       -0.018   1.503   0.010  0.00  0.00    +0.060 C 
ATOM      2  C   LIG    1        0.002  -0.004   0.002  0.00  0.00    -0.140 C 
ATOM      3  C   LIG    1       -1.123  -0.674   0.009  0.00  0.00    -0.120 C 
ATOM      4  C   LIG    1       -1.068  -2.163   0.007  0.00  0.00    +0.060 C 
ATOM      5  C   LIG    1       -1.075  -2.683  -1.454  0.00  0.00    +0.010 C 
ATOM      6  C   LIG    1       -2.394  -2.447  -2.064  0.00  0.00    -0.010 C 
ATOM      7  C   LIG    1       -2.784  -0.982  -2.197  0.00  0.00    +0.010 C 
ATOM      8  C   LIG    1       -3.468  -0.532  -0.929  0.00  0.00    +0.000 C 
ATOM      9  C   LIG    1       -2.430   0.097   0.026  0.00  0.00    +0.050 C 
ATOM     10  C   LIG    1        1.317  -0.740  -0.015  0.00  0.00    +0.070 C 
ENDROOT
TORSDOF 0
ENDMDL
MODEL       30
REMARK  Name = ZINC000005820949
REMARK                            x       y       z     vdW  Elec       q    Type
REMARK                         _______ _______ _______ _____ _____    ______ ____
ROOT
ATOM      1  C   LIG    1        1.476  -4.051  -2.532  0.00  0.00    -0.120 C 
ATOM      2  C   LIG    1        2.171  -4.561  -3.812  0.00  0.00    +0.050 C 
ATOM      3  C   LIG    1        1.351  -5.819  -4.199  0.00  0.00    +0.040 C 
ATOM      4  C   LIG    1       -0.094  -5.397  -3.833  0.00  0.00    -0.130 C 
ATOM      5  C   LIG    1       -0.963  -6.631  -3.584  0.00  0.00    +0.040 C 
ATOM      6  C   LIG    1       -0.697  -4.535  -4.944  0.00  0.00    +0.060 C 
ATOM      7  C   LIG    1        2.210  -4.570  -1.294  0.00  0.00    +0.060 C 
ATOM      8  C   LIG    1        0.060  -4.587  -2.558  0.00  0.00    +0.390 C 
ATOM      9  O   LIG    1       -0.790  -4.405  -1.719  0.00  0.00    -0.430 OA
ENDROOT
BRANCH   1  10
ATOM     10  C   LIG    1        1.455  -2.521  -2.524  0.00  0.00    +0.030 C 
BRANCH  10  11
ATOM     11  C   LIG    1        0.739  -2.027  -1.265  0.00  0.00    +0.020 C 
BRANCH  11  12
ATOM     12  C   LIG    1        0.718  -0.497  -1.257  0.00  0.00    +0.000 C 
BRANCH  12  14
ATOM     13  C   LIG    1       -0.019   1.526   0.010  0.00  0.00    +0.000 C 
ATOM     14  C   LIG    1        0.002  -0.004   0.002  0.00  0.00    -0.010 C 
ENDBRANCH  12  14
ENDBRANCH  11  12
ENDBRANCH  10  11
ENDBRANCH   1  10
TORSDOF 4
ENDMDL
MODEL       31
REMARK  Name = ZINC000142615561
REMARK                            x       y       z     vdW  Elec       q    Type
REMARK                         _______ _______ _______ _____ _____    ______ ____
ROOT
ATOM      1  C   LIG    1        1.604  -4.045  -2.606  0.00  0.00    +0.080 C 
ATOM      2  C   LIG    1        0.908  -4.685  -3.513  0.00  0.00    -0.100 C 
ENDROOT
BRANCH   2   3
ATOM      3  C   LIG    1        0.334  -3.937  -4.689  0.00  0.00    +0.490 C 
ATOM      4  F   LIG    1       -0.584  -2.985  -4.232  0.00  0.00    -0.180 F 
ATOM      5  F   LIG    1       -0.314  -4.836  -5.542  0.00  0.00    -0.180 F 
ATOM      6  F   LIG    1        1.365  -3.296  -5.382  0.00  0.00    -0.180 F 
ENDBRANCH   2   3
BRANCH   1   7
ATOM      7  C   LIG    1        1.819  -2.559  -2.731  0.00  0.00    +0.040 C 
BRANCH   7   8
ATOM      8  C   LIG    1        1.356  -1.867  -1.447  0.00  0.00    +0.030 C 
BRANCH   8   9
ATOM      9  C   LIG    1        1.574  -0.358  -1.574  0.00  0.00    +0.000 C 
BRANCH   9  11
ATOM     10  C   LIG    1        1.329   1.843  -0.418  0.00  0.00    +0.000 C 
ATOM     11  C   LIG    1        1.111   0.334  -0.291  0.00  0.00    -0.010 C 
ENDBRANCH   9  11
ENDBRANCH   8   9
ENDBRANCH   7   8
ENDBRANCH   1   7
TORSDOF 5
ENDMDL
MODEL       32
REMARK  Name = ZINC000002558904
REMARK                            x       y       z     vdW  Elec       q    Type
REMARK                         _______ _______ _______ _____ _____    ______ ____
ROOT
ATOM      1  C   LIG    1       -0.018   1.503   0.010  0.00  0.00    +0.150 C 
ATOM      2  C   LIG    1        0.002  -0.004   0.002  0.00  0.00    -0.160 A 
ATOM      3  C   LIG    1       -1.077  -0.761   0.003  0.00  0.00    -0.100 A 
ATOM      4  C   LIG    1       -0.820  -2.193  -0.006  0.00  0.00    -0.070 A 
ATOM      5  C   LIG    1       -1.736  -3.266  -0.008  0.00  0.00    +0.050 A 
ATOM      6  C   LIG    1       -1.291  -4.553  -0.017  0.00  0.00    +0.010 A 
ATOM      7  C   LIG    1        0.069  -4.830  -0.024  0.00  0.00    +0.030 A 
ATOM      8  C   LIG    1        0.984  -3.804  -0.023  0.00  0.00    +0.050 A 
ATOM      9  C   LIG    1        0.549  -2.475  -0.014  0.00  0.00    -0.140 A 
ATOM     10  C   LIG    1       -2.470  -0.188   0.012  0.00  0.00    +0.110 C 
ATOM     11  S   LIG    1        1.464  -0.972  -0.018  0.00  0.00    +0.080 S 
ENDROOT
TORSDOF 0
ENDMDL
MODEL       33
REMARK  Name = ZINC000006533970
REMARK                            x       y       z     vdW  Elec       q    Type
REMARK                         _______ _______ _______ _____ _____    ______ ____
ROOT
ATOM      1  C   LIG    1       -0.018   1.503   0.010  0.00  0.00    +0.150 C 
ATOM      2  C   LIG    1        0.002  -0.004   0.002  0.00  0.00    +0.220 A 
ATOM      3  C   LIG    1        0.005  -0.646  -1.183  0.00  0.00    -0.070 A 
ATOM      4  C   LIG    1        0.025  -2.060  -1.225  0.00  0.00    +0.190 A 
ATOM      5  C   LIG    1        0.041  -2.786   0.057  0.00  0.00    -0.120 A 
ATOM      6  C   LIG    1        0.061  -4.179   0.104  0.00  0.00    +0.130 A 
ATOM      7  C   LIG    1        0.077  -4.818   1.325  0.00  0.00    +0.000 A 
ATOM      8  C   LIG    1        0.072  -4.083   2.501  0.00  0.00    +0.090 A 
ATOM      9  C   LIG    1        0.051  -2.705   2.471  0.00  0.00    -0.140 A 
ATOM     10  C   LIG    1        0.046  -1.921   3.757  0.00  0.00    +0.100 C 
ATOM     11  C   LIG    1        0.037  -2.041   1.249  0.00  0.00    +0.180 A 
ATOM     12  S   LIG    1        0.029  -2.901  -2.717  0.00  0.00    -0.560 S 
ATOM     13  N   LIG    1        0.022  -0.663   1.188  0.00  0.00    -0.580 N 
ATOM     14  H   LIG    1        0.023  -0.153   2.014  0.00  0.00    +0.420 HD
ENDROOT
TORSDOF 0
ENDMDL
MODEL       34
REMARK  Name = ZINC000017427498
REMARK                            x       y       z     vdW  Elec       q    Type
REMARK                         _______ _______ _______ _____ _____    ______ ____
ROOT
ATOM      1  C   LIG    1        4.775   1.082  -1.408  0.00  0.00    -0.090 A 
ATOM      2  C   LIG    1        5.006   0.330  -0.262  0.00  0.00    -0.010 A 
ATOM      3  C   LIG    1        6.174  -0.396  -0.140  0.00  0.00    +0.030 A 
ATOM      4  C   LIG    1        7.113  -0.376  -1.155  0.00  0.00    +0.010 A 
ATOM      5  C   LIG    1        6.886   0.371  -2.296  0.00  0.00    +0.030 A 
ATOM      6  C   LIG    1        5.718   1.096  -2.429  0.00  0.00    +0.030 A 
ENDROOT
BRANCH   1   7
ATOM      7  S   LIG    1        3.286   2.011  -1.569  0.00  0.00    -0.100 S 
BRANCH   7   8
ATOM      8  C   LIG    1        2.421   1.667  -0.012  0.00  0.00    +0.100 C 
BRANCH   8  11
ATOM      9 CL   LIG    1        0.002  -0.004   0.002  0.00  0.00    -0.080 Cl
ATOM     10  C   LIG    1       -0.021   1.732   0.012  0.00  0.00    +0.080 C 
ATOM     11  C   LIG    1        1.105   2.403   0.004  0.00  0.00    +0.010 C 
ENDBRANCH   8  11
ENDBRANCH   7   8
ENDBRANCH   1   7
TORSDOF 3
ENDMDL
MODEL       35
REMARK  Name = ZINC000006964333
REMARK                            x       y       z     vdW  Elec       q    Type
REMARK                         _______ _______ _______ _____ _____    ______ ____
ROOT
ATOM      1  C   LIG    1       -0.238   1.506   0.046  0.00  0.00    +0.150 C 
ATOM      2  C   LIG    1       -0.091   0.007   0.014  0.00  0.00    +0.080 A 
ATOM      3  C   LIG    1       -0.146  -0.750  -1.093  0.00  0.00    -0.060 A 
ATOM      4  C   LIG    1        0.044  -2.140  -0.673  0.00  0.00    -0.110 A 
ATOM      5  C   LIG    1        0.087  -3.361  -1.349  0.00  0.00    +0.050 A 
ATOM      6  C   LIG    1        0.287  -4.517  -0.648  0.00  0.00    -0.030 A 
ATOM      7  C   LIG    1        0.448  -4.487   0.730  0.00  0.00    +0.020 A 
ATOM      8  C   LIG    1        0.409  -3.293   1.417  0.00  0.00    -0.010 A 
ATOM      9  C   LIG    1        0.207  -2.104   0.724  0.00  0.00    +0.100 A 
ATOM     10  N   LIG    1        0.125  -0.785   1.109  0.00  0.00    -0.480 N 
ENDROOT
BRANCH  10  11
ATOM     11  C   LIG    1        0.248  -0.301   2.487  0.00  0.00    +0.230 C 
ATOM     12  C   LIG    1        1.619  -0.689   3.043  0.00  0.00    +0.040 C 
ATOM     13  C   LIG    1       -0.849  -0.931   3.348  0.00  0.00    +0.040 C 
ENDBRANCH  10  11
TORSDOF 1
ENDMDL
MODEL       36
REMARK  Name = ZINC000001733719
REMARK                            x       y       z     vdW  Elec       q    Type
REMARK                         _______ _______ _______ _____ _____    ______ ____
ROOT
ATOM      1 CL   LIG    1        0.002  -0.004   0.002  0.00  0.00    -0.040 Cl
ATOM      2  C   LIG    1       -0.021   1.732   0.012  0.00  0.00    -0.040 C 
ATOM      3  C   LIG    1       -1.104   2.502   0.032  0.00  0.00    +0.070 C 
ATOM      4  C   LIG    1       -0.714   3.918   0.034  0.00  0.00    -0.070 A 
ATOM      5  C   LIG    1        0.579   3.962   0.015  0.00  0.00    -0.090 A 
ATOM      6  C   LIG    1        1.399   5.168   0.008  0.00  0.00    -0.060 A 
ATOM      7  C   LIG    1        0.781   6.324   0.019  0.00  0.00    +0.070 A 
ATOM      8  C   LIG    1       -0.699   6.332   0.047  0.00  0.00    +0.000 A 
ATOM      9  C   LIG    1        2.857   4.962  -0.019  0.00  0.00    +0.070 A 
ATOM     10  C   LIG    1        3.315   3.723  -0.028  0.00  0.00    +0.000 A 
ATOM     11  C   LIG    1        2.459   2.525  -0.015  0.00  0.00    +0.110 A 
ATOM     12  C   LIG    1       -1.410   5.219   0.052  0.00  0.00    +0.060 A 
ATOM     13  C   LIG    1        1.153   2.617   0.005  0.00  0.00    -0.080 A 
ENDROOT
TORSDOF 0
ENDMDL
MODEL       37
REMARK  Name = ZINC000005519207
REMARK                            x       y       z     vdW  Elec       q    Type
REMARK                         _______ _______ _______ _____ _____    ______ ____
ROOT
ATOM      1  C   LIG    1        1.803  -1.783  -0.024  0.00  0.00    -0.010 A 
ATOM      2  C   LIG    1        1.163  -2.777   0.758  0.00  0.00    -0.040 A 
ATOM      3  C   LIG    1        0.054  -2.470   1.558  0.00  0.00    +0.030 A 
ATOM      4  C   LIG    1       -0.536  -3.451   2.296  0.00  0.00    +0.000 A 
ATOM      5  C   LIG    1       -0.053  -4.757   2.270  0.00  0.00    +0.010 A 
ATOM      6  C   LIG    1        1.022  -5.090   1.505  0.00  0.00    +0.020 A 
ATOM      7  C   LIG    1        1.657  -4.104   0.729  0.00  0.00    -0.050 A 
ATOM      8  C   LIG    1        2.769  -4.413  -0.073  0.00  0.00    +0.030 A 
ATOM      9  C   LIG    1        3.367  -3.440  -0.816  0.00  0.00    +0.020 A 
ATOM     10  C   LIG    1        2.894  -2.133  -0.805  0.00  0.00    +0.010 A 
ENDROOT
BRANCH   1  15
ATOM     11  C   LIG    1       -0.017   1.399   0.010  0.00  0.00    -0.060 A 
ATOM     12  C   LIG    1        1.264   1.828  -0.000  0.00  0.00    +0.170 A 
ATOM     13  N   LIG    1        2.085   0.740  -0.014  0.00  0.00    -0.550 N 
ATOM     14  H   LIG    1        3.055   0.762  -0.024  0.00  0.00    +0.410 HD
ATOM     15  C   LIG    1        1.310  -0.393  -0.013  0.00  0.00    +0.050 A 
ATOM     16  C   LIG    1        0.002  -0.004   0.002  0.00  0.00    -0.040 A 
ENDBRANCH   1  15
TORSDOF 1
ENDMDL
MODEL       38
REMARK  Name = ZINC000008615835
REMARK                            x       y       z     vdW  Elec       q    Type
REMARK                         _______ _______ _______ _____ _____    ______ ____
ROOT
ATOM      1  C   LIG    1        0.481  -2.146   1.048  0.00  0.00    -0.140 A 
ATOM      2  C   LIG    1        1.867  -2.094   0.999  0.00  0.00    +0.060 A 
ATOM      3  C   LIG    1        2.571  -2.078   2.191  0.00  0.00    -0.030 A 
ATOM      4  C   LIG    1        1.866  -2.116   3.394  0.00  0.00    +0.160 A 
ATOM      5  N   LIG    1        0.538  -2.166   3.397  0.00  0.00    -0.470 NA
ATOM      6  C   LIG    1       -0.154  -2.176   2.276  0.00  0.00    +0.250 A 
ENDROOT
BRANCH   4   7
ATOM      7  C   LIG    1        2.601  -2.100   4.675  0.00  0.00    -0.030 C 
ATOM      8  C   LIG    1        1.937  -2.026   5.820  0.00  0.00    -0.050 C 
ATOM      9  C   LIG    1        0.450  -1.784   5.814  0.00  0.00    +0.100 C 
BRANCH   8  10
ATOM     10  C   LIG    1        2.669  -2.183   7.128  0.00  0.00    +0.010 C 
ATOM     11  C   LIG    1        2.097  -3.379   7.892  0.00  0.00    +0.040 C 
ATOM     12  C   LIG    1        2.498  -0.914   7.965  0.00  0.00    +0.030 C 
ENDBRANCH   8  10
ENDBRANCH   4   7
BRANCH   1  14
ATOM     13  C   LIG    1       -0.645  -0.728  -0.646  0.00  0.00    +0.020 C 
ATOM     14  C   LIG    1       -0.324  -2.164  -0.226  0.00  0.00    +0.070 C 
ENDBRANCH   1  14
TORSDOF 3
ENDMDL
MODEL       39
REMARK  Name = ZINC000008615834
REMARK                            x       y       z     vdW  Elec       q    Type
REMARK                         _______ _______ _______ _____ _____    ______ ____
ROOT
ATOM      1  C   LIG    1       -1.319  -1.954  -2.555  0.00  0.00    +0.150 A 
ATOM      2  C   LIG    1       -2.413  -2.657  -3.060  0.00  0.00    -0.030 A 
ATOM      3  C   LIG    1       -3.405  -1.964  -3.733  0.00  0.00    +0.060 A 
ATOM      4  C   LIG    1       -3.271  -0.590  -3.879  0.00  0.00    -0.140 A 
ATOM      5  C   LIG    1       -2.160   0.044  -3.352  0.00  0.00    +0.250 A 
ATOM      6  N   LIG    1       -1.233  -0.637  -2.712  0.00  0.00    -0.460 NA
ENDROOT
BRANCH   1   8
ATOM      7  C   LIG    1        0.844  -2.036  -1.453  0.00  0.00    -0.060 C 
ATOM      8  C   LIG    1       -0.252  -2.678  -1.833  0.00  0.00    -0.020 C 
ATOM      9  C   LIG    1        1.861  -2.731  -0.585  0.00  0.00    +0.090 C 
BRANCH   7  10
ATOM     10  C   LIG    1        1.073  -0.612  -1.889  0.00  0.00    +0.060 C 
BRANCH  10  12
ATOM     11  C   LIG    1        0.591   1.784  -1.367  0.00  0.00    +0.000 C 
ATOM     12  C   LIG    1        0.358   0.338  -0.925  0.00  0.00    +0.020 C 
ENDBRANCH  10  12
ENDBRANCH   7  10
ENDBRANCH   1   8
BRANCH   4  13
ATOM     13  C   LIG    1       -4.327   0.203  -4.604  0.00  0.00    +0.060 C 
ATOM     14  C   LIG    1       -5.388   0.672  -3.606  0.00  0.00    +0.020 C 
ENDBRANCH   4  13
TORSDOF 4
ENDMDL
MODEL       40
REMARK  Name = ZINC000095732994
REMARK                            x       y       z     vdW  Elec       q    Type
REMARK                         _______ _______ _______ _____ _____    ______ ____
ROOT
ATOM      1  C   LIG    1        1.341  -2.529  -2.322  0.00  0.00    +0.150 A 
ATOM      2  C   LIG    1        1.907  -1.762  -3.327  0.00  0.00    -0.060 A 
ATOM      3  C   LIG    1        2.524  -2.381  -4.407  0.00  0.00    -0.050 A 
ATOM      4  C   LIG    1        2.570  -3.769  -4.476  0.00  0.00    -0.040 A 
ATOM      5  C   LIG    1        2.004  -4.530  -3.471  0.00  0.00    +0.070 A 
ATOM      6  C   LIG    1        1.396  -3.915  -2.394  0.00  0.00    -0.120 A 
ATOM      7  C   LIG    1        0.780  -4.749  -1.300  0.00  0.00    +0.100 C 
ENDROOT
BRANCH   3   8
ATOM      8  S   LIG    1        3.246  -1.410  -5.688  0.00  0.00    -0.120 S 
ATOM      9  C   LIG    1        3.900  -2.660  -6.828  0.00  0.00    +0.150 C 
ENDBRANCH   3   8
BRANCH   1  10
ATOM     10  O   LIG    1        0.738  -1.926  -1.265  0.00  0.00    -0.310 OA
BRANCH  10  11
ATOM     11  C   LIG    1        0.718  -0.497  -1.257  0.00  0.00    +0.180 C 
BRANCH  11  13
ATOM     12  C   LIG    1       -0.019   1.526   0.010  0.00  0.00    +0.040 C 
ATOM     13  C   LIG    1        0.002  -0.004   0.002  0.00  0.00    +0.020 C 
ENDBRANCH  11  13
ENDBRANCH  10  11
ENDBRANCH   1  10
TORSDOF 4
ENDMDL
MODEL       41
REMARK  Name = ZINC000095732932
REMARK                            x       y       z     vdW  Elec       q    Type
REMARK                         _______ _______ _______ _____ _____    ______ ____
ROOT
ATOM      1  C   LIG    1        1.342  -2.530  -2.323  0.00  0.00    +0.130 A 
ATOM      2  C   LIG    1        1.908  -1.761  -3.329  0.00  0.00    -0.060 A 
ATOM      3  C   LIG    1        2.522  -2.372  -4.404  0.00  0.00    +0.030 A 
ATOM      4  C   LIG    1        2.571  -3.759  -4.479  0.00  0.00    -0.120 A 
ATOM      5  C   LIG    1        2.004  -4.528  -3.470  0.00  0.00    +0.080 A 
ATOM      6  C   LIG    1        1.396  -3.914  -2.393  0.00  0.00    -0.100 A 
ATOM      7  C   LIG    1        0.781  -4.749  -1.300  0.00  0.00    +0.100 C 
ENDROOT
BRANCH   4   8
ATOM      8  S   LIG    1        3.354  -4.540  -5.850  0.00  0.00    -0.120 S 
ATOM      9  C   LIG    1        3.916  -3.138  -6.853  0.00  0.00    +0.130 C 
ENDBRANCH   4   8
BRANCH   1  10
ATOM     10  O   LIG    1        0.738  -1.926  -1.265  0.00  0.00    -0.310 OA
BRANCH  10  11
ATOM     11  C   LIG    1        0.718  -0.497  -1.257  0.00  0.00    +0.180 C 
BRANCH  11  13
ATOM     12  C   LIG    1       -0.019   1.526   0.010  0.00  0.00    +0.040 C 
ATOM     13  C   LIG    1        0.002  -0.004   0.002  0.00  0.00    +0.020 C 
ENDBRANCH  11  13
ENDBRANCH  10  11
ENDBRANCH   1  10
TORSDOF 4
ENDMDL
MODEL       42
REMARK  Name = ZINC000008699719
REMARK                            x       y       z     vdW  Elec       q    Type
REMARK                         _______ _______ _______ _____ _____    ______ ____
ROOT
ATOM      1  C   LIG    1       -1.412  -0.526   0.013  0.00  0.00    -0.130 A 
ATOM      2  C   LIG    1       -2.258  -0.203   1.058  0.00  0.00    +0.050 A 
ATOM      3  C   LIG    1       -3.554  -0.679   1.071  0.00  0.00    -0.070 A 
ATOM      4  C   LIG    1       -4.008  -1.483   0.032  0.00  0.00    +0.210 A 
ATOM      5  C   LIG    1       -3.155  -1.805  -1.016  0.00  0.00    -0.080 A 
ATOM      6  C   LIG    1       -1.861  -1.321  -1.025  0.00  0.00    +0.050 A 
ENDROOT
BRANCH   1   8
ATOM      7  C   LIG    1       -0.019   1.526   0.010  0.00  0.00    +0.020 C 
ATOM      8  C   LIG    1        0.002  -0.004   0.002  0.00  0.00    +0.020 C 
ATOM      9  C   LIG    1        0.742  -0.511   1.242  0.00  0.00    +0.020 C 
ENDBRANCH   1   8
BRANCH   4  10
ATOM     10  N   LIG    1       -5.318  -1.966   0.042  0.00  0.00    -0.750 N 
ATOM     11  H   LIG    1       -5.913  -1.741   0.774  0.00  0.00    +0.400 HD
BRANCH  10  12
ATOM     12  C   LIG    1       -5.795  -2.814  -1.054  0.00  0.00    +0.280 C 
BRANCH  12  13
ATOM     13  C   LIG    1       -7.252  -3.204  -0.801  0.00  0.00    -0.060 C 
ATOM     14  C   LIG    1       -8.299  -2.711  -1.802  0.00  0.00    +0.020 C 
ATOM     15  C   LIG    1       -7.900  -4.188  -1.777  0.00  0.00    +0.030 C 
ENDBRANCH  12  13
ENDBRANCH  10  12
ENDBRANCH   4  10
TORSDOF 4
ENDMDL
MODEL       43
REMARK  Name = ZINC000006092822
REMARK                            x       y       z     vdW  Elec       q    Type
REMARK                         _______ _______ _______ _____ _____    ______ ____
ROOT
ATOM      1  C   LIG    1        1.250   1.961   0.001  0.00  0.00    -0.200 A 
ATOM      2  C   LIG    1        2.472   1.282  -0.021  0.00  0.00    +0.070 A 
ATOM      3  C   LIG    1        3.653   1.995  -0.028  0.00  0.00    +0.000 A 
ATOM      4  C   LIG    1        3.630   3.379  -0.015  0.00  0.00    -0.040 A 
ATOM      5  C   LIG    1        2.424   4.058   0.006  0.00  0.00    +0.000 A 
ATOM      6  C   LIG    1        1.235   3.360   0.008  0.00  0.00    +0.060 A 
ENDROOT
BRANCH   4   7
ATOM      7  C   LIG    1        4.925   4.150  -0.024  0.00  0.00    +0.030 C 
ATOM      8  C   LIG    1        4.978   5.043  -1.265  0.00  0.00    +0.020 C 
ATOM      9  C   LIG    1        6.293   5.826  -1.274  0.00  0.00    +0.000 C 
ATOM     10  C   LIG    1        6.377   6.694  -0.018  0.00  0.00    +0.000 C 
ATOM     11  C   LIG    1        6.324   5.802   1.224  0.00  0.00    +0.000 C 
ATOM     12  C   LIG    1        5.009   5.019   1.233  0.00  0.00    +0.020 C 
ENDBRANCH   4   7
BRANCH   1  14
ATOM     13  O   LIG    1        0.002  -0.004   0.002  0.00  0.00    -0.460 OA
ATOM     14  C   LIG    1       -0.014   1.208   0.009  0.00  0.00    +0.490 C 
ENDBRANCH   1  14
TORSDOF 2
ENDMDL
MODEL       44
REMARK  Name = ZINC000095733010
REMARK                            x       y       z     vdW  Elec       q    Type
REMARK                         _______ _______ _______ _____ _____    ______ ____
ROOT
ATOM      1  C   LIG    1        1.342  -2.530  -2.323  0.00  0.00    +0.140 A 
ATOM      2  C   LIG    1        1.908  -1.764  -3.328  0.00  0.00    -0.060 A 
ATOM      3  C   LIG    1        2.523  -2.379  -4.404  0.00  0.00    +0.050 A 
ATOM      4  C   LIG    1        2.574  -3.759  -4.480  0.00  0.00    -0.100 A 
ATOM      5  C   LIG    1        2.011  -4.531  -3.481  0.00  0.00    +0.030 A 
ATOM      6  C   LIG    1        3.245  -4.422  -5.655  0.00  0.00    +0.100 C 
ATOM      7  C   LIG    1        1.397  -3.921  -2.396  0.00  0.00    -0.120 A 
ENDROOT
BRANCH   7   8
ATOM      8  S   LIG    1        0.679  -4.902  -1.121  0.00  0.00    -0.090 S 
ATOM      9  C   LIG    1        0.998  -6.597  -1.682  0.00  0.00    +0.120 C 
ENDBRANCH   7   8
BRANCH   1  10
ATOM     10  O   LIG    1        0.738  -1.926  -1.265  0.00  0.00    -0.310 OA
BRANCH  10  11
ATOM     11  C   LIG    1        0.718  -0.497  -1.257  0.00  0.00    +0.180 C 
BRANCH  11  13
ATOM     12  C   LIG    1       -0.019   1.526   0.010  0.00  0.00    +0.040 C 
ATOM     13  C   LIG    1        0.002  -0.004   0.002  0.00  0.00    +0.020 C 
ENDBRANCH  11  13
ENDBRANCH  10  11
ENDBRANCH   1  10
TORSDOF 4
ENDMDL
MODEL       45
REMARK  Name = ZINC000095740083
REMARK                            x       y       z     vdW  Elec       q    Type
REMARK                         _______ _______ _______ _____ _____    ______ ____
ROOT
ATOM      1  C   LIG    1       -2.617  -2.596   0.013  0.00  0.00    +0.130 A 
ATOM      2  C   LIG    1       -3.790  -1.856   0.023  0.00  0.00    -0.070 A 
ATOM      3  C   LIG    1       -5.013  -2.499   0.031  0.00  0.00    +0.040 A 
ATOM      4  C   LIG    1       -5.067  -3.887   0.030  0.00  0.00    -0.130 A 
ATOM      5  C   LIG    1       -3.891  -4.627   0.020  0.00  0.00    -0.020 A 
ATOM      6  C   LIG    1       -3.949  -6.133   0.019  0.00  0.00    +0.110 C 
ATOM      7  C   LIG    1       -2.670  -3.983   0.006  0.00  0.00    +0.000 A 
ENDROOT
BRANCH   4   8
ATOM      8  S   LIG    1       -6.626  -4.708   0.041  0.00  0.00    -0.110 S 
ATOM      9  C   LIG    1       -7.811  -3.335   0.051  0.00  0.00    +0.120 C 
ENDBRANCH   4   8
BRANCH   1  10
ATOM     10  O   LIG    1       -1.414  -1.962   0.005  0.00  0.00    -0.310 OA
BRANCH  10  11
ATOM     11  C   LIG    1       -1.433  -0.534   0.013  0.00  0.00    +0.180 C 
BRANCH  11  13
ATOM     12  C   LIG    1       -0.019   1.526   0.010  0.00  0.00    +0.040 C 
ATOM     13  C   LIG    1        0.002  -0.004   0.002  0.00  0.00    +0.020 C 
ENDBRANCH  11  13
ENDBRANCH  10  11
ENDBRANCH   1  10
TORSDOF 4
ENDMDL
MODEL       46
REMARK  Name = ZINC000039251474
REMARK                            x       y       z     vdW  Elec       q    Type
REMARK                         _______ _______ _______ _____ _____    ______ ____
ROOT
ATOM      1 CL   LIG    1        0.002  -0.004   0.002  0.00  0.00    -0.040 Cl
ATOM      2  C   LIG    1       -0.021   1.732   0.012  0.00  0.00    -0.010 A 
ATOM      3  C   LIG    1       -1.245   2.403   0.033  0.00  0.00    -0.040 A 
ATOM      4  C   LIG    1       -1.300   3.764   0.041  0.00  0.00    +0.100 A 
ATOM      5  C   LIG    1       -0.108   4.505   0.028  0.00  0.00    -0.110 A 
ATOM      6  C   LIG    1       -0.102   5.909   0.036  0.00  0.00    +0.330 A 
ATOM      7  N   LIG    1        1.038   6.559   0.024  0.00  0.00    -0.480 NA
ATOM      8  C   LIG    1        2.213   5.945   0.003  0.00  0.00    +0.250 A 
ATOM      9  C   LIG    1        2.316   4.587  -0.006  0.00  0.00    +0.000 A 
ATOM     10  C   LIG    1        1.136   3.821   0.006  0.00  0.00    -0.020 A 
ATOM     11 CL   LIG    1       -2.721   1.488   0.049  0.00  0.00    -0.040 Cl
ATOM     12  C   LIG    1        1.156   2.420   0.004  0.00  0.00    +0.060 A 
ENDROOT
TORSDOF 0
ENDMDL
MODEL       47
REMARK  Name = ZINC000071259685
REMARK                            x       y       z     vdW  Elec       q    Type
REMARK                         _______ _______ _______ _____ _____    ______ ____
ROOT
ATOM      1 CL   LIG    1        0.002  -0.004   0.002  0.00  0.00    -0.050 Cl
ATOM      2  C   LIG    1       -0.021   1.732   0.012  0.00  0.00    -0.030 A 
ATOM      3  C   LIG    1       -1.230   2.406   0.033  0.00  0.00    +0.050 A 
ATOM      4  C   LIG    1       -1.260   3.791   0.040  0.00  0.00    -0.020 A 
ATOM      5  C   LIG    1       -0.081   4.505   0.027  0.00  0.00    -0.070 A 
ATOM      6  C   LIG    1       -0.092   6.011   0.034  0.00  0.00    +0.090 C 
ATOM      7  C   LIG    1        1.100   6.534   0.834  0.00  0.00    +0.060 C 
ATOM      8  C   LIG    1        2.375   5.881   0.378  0.00  0.00    -0.010 C 
ATOM      9  C   LIG    1        2.395   4.612  -0.005  0.00  0.00    +0.000 C 
ATOM     10  C   LIG    1        1.142   3.829   0.007  0.00  0.00    -0.030 A 
ATOM     11 CL   LIG    1       -2.781   4.627   0.067  0.00  0.00    -0.050 Cl
ATOM     12  C   LIG    1        1.167   2.438   0.004  0.00  0.00    +0.050 A 
ENDROOT
TORSDOF 0
ENDMDL
MODEL       48
REMARK  Name = ZINC000008699712
REMARK                            x       y       z     vdW  Elec       q    Type
REMARK                         _______ _______ _______ _____ _____    ______ ____
ROOT
ATOM      1  C   LIG    1       -1.412  -0.526   0.013  0.00  0.00    -0.030 A 
ATOM      2  C   LIG    1       -2.259  -0.204   1.057  0.00  0.00    -0.050 A 
ATOM      3  C   LIG    1       -3.557  -0.680   1.071  0.00  0.00    +0.050 A 
ATOM      4  C   LIG    1       -4.012  -1.479   0.041  0.00  0.00    -0.080 A 
ATOM      5  C   LIG    1       -3.163  -1.805  -1.010  0.00  0.00    +0.220 A 
ATOM      6  C   LIG    1       -1.862  -1.320  -1.024  0.00  0.00    -0.070 A 
ENDROOT
BRANCH   1   8
ATOM      7  C   LIG    1       -0.019   1.526   0.010  0.00  0.00    +0.040 C 
ATOM      8  C   LIG    1        0.002  -0.004   0.002  0.00  0.00    +0.020 C 
ATOM      9  C   LIG    1        0.742  -0.511   1.242  0.00  0.00    +0.040 C 
ENDBRANCH   1   8
BRANCH   5  10
ATOM     10  N   LIG    1       -3.620  -2.613  -2.054  0.00  0.00    -0.750 N 
ATOM     11  H   LIG    1       -3.027  -2.840  -2.787  0.00  0.00    +0.400 HD
BRANCH  10  12
ATOM     12  C   LIG    1       -4.995  -3.118  -2.041  0.00  0.00    +0.280 C 
BRANCH  12  13
ATOM     13  C   LIG    1       -5.237  -3.971  -3.289  0.00  0.00    -0.060 C 
ATOM     14  C   LIG    1       -5.546  -5.455  -3.082  0.00  0.00    +0.020 C 
ATOM     15  C   LIG    1       -6.655  -4.496  -3.522  0.00  0.00    +0.030 C 
ENDBRANCH  12  13
ENDBRANCH  10  12
ENDBRANCH   5  10
TORSDOF 4
ENDMDL
MODEL       49
REMARK  Name = ZINC000001716991
REMARK                            x       y       z     vdW  Elec       q    Type
REMARK                         _______ _______ _______ _____ _____    ______ ____
ROOT
ATOM      1 CL   LIG    1        0.002  -0.004   0.002  0.00  0.00    -0.060 Cl
ATOM      2  C   LIG    1       -0.021   1.732   0.012  0.00  0.00    -0.030 A 
ATOM      3  C   LIG    1       -1.240   2.431   0.033  0.00  0.00    -0.040 A 
ATOM      4  C   LIG    1       -2.504   1.818   0.049  0.00  0.00    +0.020 A 
ATOM      5  C   LIG    1       -3.618   2.607   0.069  0.00  0.00    +0.030 A 
ATOM      6  C   LIG    1       -3.545   4.003   0.074  0.00  0.00    +0.030 A 
ATOM      7  C   LIG    1       -2.335   4.628   0.059  0.00  0.00    -0.080 A 
ATOM      8  C   LIG    1       -1.887   6.069   0.060  0.00  0.00    +0.100 C 
ATOM      9  C   LIG    1       -0.344   6.015   0.039  0.00  0.00    +0.100 C 
ATOM     10  C   LIG    1        0.004   4.547   0.026  0.00  0.00    -0.070 A 
ATOM     11  C   LIG    1        1.168   3.839   0.006  0.00  0.00    +0.030 A 
ATOM     12  C   LIG    1       -1.192   3.836   0.039  0.00  0.00    -0.080 A 
ATOM     13  C   LIG    1        1.145   2.443   0.004  0.00  0.00    +0.030 A 
ENDROOT
TORSDOF 0
ENDMDL
MODEL       50
REMARK  Name = ZINC000095739524
REMARK                            x       y       z     vdW  Elec       q    Type
REMARK                         _______ _______ _______ _____ _____    ______ ____
ROOT
ATOM      1  C   LIG    1       -3.120  -2.767   0.017  0.00  0.00    -0.090 A 
ATOM      2  C   LIG    1       -4.081  -1.764   0.026  0.00  0.00    +0.020 A 
ATOM      3  C   LIG    1       -5.422  -2.093   0.037  0.00  0.00    +0.050 A 
ATOM      4  C   LIG    1       -5.810  -3.427   0.039  0.00  0.00    -0.090 A 
ATOM      5  C   LIG    1       -4.849  -4.430   0.029  0.00  0.00    +0.020 A 
ATOM      6  C   LIG    1       -3.508  -4.101   0.013  0.00  0.00    +0.050 A 
ENDROOT
BRANCH   4   7
ATOM      7  S   LIG    1       -7.521  -3.847   0.053  0.00  0.00    -0.110 S 
ATOM      8  C   LIG    1       -7.497  -5.660   0.051  0.00  0.00    +0.140 C 
ENDBRANCH   4   7
BRANCH   1   9
ATOM      9  S   LIG    1       -1.409  -2.348   0.003  0.00  0.00    -0.120 S 
BRANCH   9  10
ATOM     10  C   LIG    1       -1.433  -0.534   0.013  0.00  0.00    +0.070 C 
BRANCH  10  12
ATOM     11  C   LIG    1       -0.019   1.526   0.010  0.00  0.00    +0.030 C 
ATOM     12  C   LIG    1        0.002  -0.004   0.002  0.00  0.00    +0.030 C 
ENDBRANCH  10  12
ENDBRANCH   9  10
ENDBRANCH   1   9
TORSDOF 4
ENDMDL
MODEL       51
REMARK  Name = ZINC000071259677
REMARK                            x       y       z     vdW  Elec       q    Type
REMARK                         _______ _______ _______ _____ _____    ______ ____
ROOT
ATOM      1 CL   LIG    1        0.002  -0.004   0.002  0.00  0.00    -0.070 Cl
ATOM      2  C   LIG    1       -0.021   1.732   0.012  0.00  0.00    -0.030 A 
ATOM      3  C   LIG    1       -1.227   2.413   0.033  0.00  0.00    +0.020 A 
ATOM      4  C   LIG    1       -1.231   3.785   0.046  0.00  0.00    +0.030 A 
ATOM      5  C   LIG    1       -0.029   4.526   0.039  0.00  0.00    -0.030 A 
ATOM      6  C   LIG    1       -0.191   5.972   0.080  0.00  0.00    -0.020 C 
ATOM      7  C   LIG    1        0.604   6.979   0.115  0.00  0.00    -0.010 C 
ATOM      8  C   LIG    1        2.087   6.940   0.053  0.00  0.00    +0.060 C 
ATOM      9  C   LIG    1        2.663   5.738   0.756  0.00  0.00    +0.020 C 
ATOM     10  C   LIG    1        2.526   4.470  -0.022  0.00  0.00    +0.080 C 
ATOM     11  C   LIG    1        1.172   3.835   0.007  0.00  0.00    -0.050 A 
ATOM     12  C   LIG    1        1.160   2.442   0.004  0.00  0.00    +0.010 A 
ENDROOT
TORSDOF 0
ENDMDL
MODEL       52
REMARK  Name = ZINC000038316912
REMARK                            x       y       z     vdW  Elec       q    Type
REMARK                         _______ _______ _______ _____ _____    ______ ____
ROOT
ATOM      1 CL   LIG    1        0.030   0.090  -1.008  0.00  0.00    -0.070 Cl
ATOM      2  C   LIG    1       -0.002   1.798  -0.700  0.00  0.00    -0.070 A 
ATOM      3  C   LIG    1        1.176   2.523  -0.707  0.00  0.00    +0.070 A 
ATOM      4  C   LIG    1        1.153   3.882  -0.461  0.00  0.00    -0.060 A 
ATOM      5  C   LIG    1       -0.053   4.520  -0.208  0.00  0.00    +0.140 A 
ATOM      6  C   LIG    1       -1.233   3.791  -0.202  0.00  0.00    +0.000 A 
ATOM      7  C   LIG    1       -1.206   2.433  -0.453  0.00  0.00    +0.070 A 
ENDROOT
BRANCH   5   8
ATOM      8  O   LIG    1       -0.077   5.857   0.034  0.00  0.00    -0.300 OA
BRANCH   8   9
ATOM      9  C   LIG    1        1.183   6.523   0.130  0.00  0.00    +0.160 C 
ATOM     10  C   LIG    1        1.646   7.012  -1.264  0.00  0.00    +0.000 C 
ATOM     11  C   LIG    1        2.618   8.167  -0.916  0.00  0.00    +0.020 C 
ATOM     12  C   LIG    1        1.961   8.862   0.294  0.00  0.00    +0.020 C 
ATOM     13  C   LIG    1        1.049   7.816   0.960  0.00  0.00    +0.030 C 
ENDBRANCH   8   9
ENDBRANCH   5   8
TORSDOF 2
ENDMDL
MODEL       53
REMARK  Name = ZINC000082767273
REMARK                            x       y       z     vdW  Elec       q    Type
REMARK                         _______ _______ _______ _____ _____    ______ ____
ROOT
ATOM      1 CL   LIG    1        0.002  -0.004   0.002  0.00  0.00    -0.040 Cl
ATOM      2  C   LIG    1       -0.021   1.732   0.012  0.00  0.00    -0.010 A 
ATOM      3  C   LIG    1       -1.244   2.402   0.033  0.00  0.00    +0.040 A 
ATOM      4  C   LIG    1       -1.300   3.763   0.040  0.00  0.00    +0.090 A 
ATOM      5  C   LIG    1       -0.108   4.505   0.027  0.00  0.00    -0.110 A 
ATOM      6  C   LIG    1       -0.105   5.909   0.035  0.00  0.00    +0.330 A 
ATOM      7  N   LIG    1        1.035   6.560   0.022  0.00  0.00    -0.480 NA
ATOM      8  C   LIG    1        2.211   5.948   0.002  0.00  0.00    +0.250 A 
ATOM      9  C   LIG    1        2.315   4.590  -0.007  0.00  0.00    +0.000 A 
ATOM     10  C   LIG    1        1.136   3.823   0.006  0.00  0.00    -0.010 A 
ATOM     11  C   LIG    1        1.157   2.420   0.004  0.00  0.00    -0.030 A 
ATOM     12 CL   LIG    1        2.669   1.567  -0.015  0.00  0.00    -0.030 Cl
ENDROOT
TORSDOF 0
ENDMDL
MODEL       54
REMARK  Name = ZINC000039340430
REMARK                            x       y       z     vdW  Elec       q    Type
REMARK                         _______ _______ _______ _____ _____    ______ ____
ROOT
ATOM      1 CL   LIG    1        0.002  -0.004   0.002  0.00  0.00    -0.040 Cl
ATOM      2  C   LIG    1       -0.021   1.732   0.012  0.00  0.00    -0.020 A 
ATOM      3  C   LIG    1       -1.243   2.403   0.033  0.00  0.00    +0.060 A 
ATOM      4  C   LIG    1       -1.296   3.763   0.041  0.00  0.00    +0.080 A 
ATOM      5  C   LIG    1       -0.105   4.509   0.028  0.00  0.00    +0.140 A 
ATOM      6  N   LIG    1       -0.128   5.846   0.036  0.00  0.00    -0.470 NA
ATOM      7  C   LIG    1        0.980   6.547   0.024  0.00  0.00    +0.310 A 
ATOM      8  C   LIG    1        2.232   5.938   0.002  0.00  0.00    -0.010 A 
ATOM      9  C   LIG    1        2.328   4.575  -0.007  0.00  0.00    +0.100 A 
ATOM     10  C   LIG    1        1.136   3.826   0.006  0.00  0.00    -0.090 A 
ATOM     11  C   LIG    1        1.155   2.421   0.004  0.00  0.00    -0.010 A 
ATOM     12 CL   LIG    1        2.667   1.569  -0.015  0.00  0.00    -0.030 Cl
ENDROOT
TORSDOF 0
ENDMDL
MODEL       55
REMARK  Name = ZINC000005837378
REMARK                            x       y       z     vdW  Elec       q    Type
REMARK                         _______ _______ _______ _____ _____    ______ ____
ROOT
ATOM      1  C   LIG    1       -3.120  -2.767   0.017  0.00  0.00    -0.080 A 
ATOM      2  C   LIG    1       -4.082  -1.766   0.026  0.00  0.00    +0.000 A 
ATOM      3  C   LIG    1       -5.423  -2.098   0.036  0.00  0.00    +0.040 A 
ATOM      4  C   LIG    1       -5.808  -3.426   0.039  0.00  0.00    +0.030 A 
ATOM      5  C   LIG    1       -4.853  -4.427   0.030  0.00  0.00    +0.050 A 
ATOM      6  C   LIG    1       -3.510  -4.102   0.013  0.00  0.00    -0.020 A 
ATOM      7 CL   LIG    1       -2.312  -5.358   0.002  0.00  0.00    -0.050 Cl
ENDROOT
BRANCH   1   8
ATOM      8  S   LIG    1       -1.409  -2.348   0.003  0.00  0.00    -0.090 S 
BRANCH   8   9
ATOM      9  C   LIG    1       -1.433  -0.534   0.013  0.00  0.00    +0.060 C 
BRANCH   9  11
ATOM     10  C   LIG    1       -0.019   1.526   0.010  0.00  0.00    +0.030 C 
ATOM     11  C   LIG    1        0.002  -0.004   0.002  0.00  0.00    +0.030 C 
ENDBRANCH   9  11
ENDBRANCH   8   9
ENDBRANCH   1   8
TORSDOF 3
ENDMDL
MODEL       56
REMARK  Name = ZINC000095739526
REMARK                            x       y       z     vdW  Elec       q    Type
REMARK                         _______ _______ _______ _____ _____    ______ ____
ROOT
ATOM      1  C   LIG    1        1.645  -2.717   2.708  0.00  0.00    -0.060 A 
ATOM      2  C   LIG    1        2.108  -1.699   3.534  0.00  0.00    -0.010 A 
ATOM      3  C   LIG    1        2.796  -2.006   4.692  0.00  0.00    +0.050 A 
ATOM      4  C   LIG    1        3.027  -3.325   5.033  0.00  0.00    -0.010 A 
ATOM      5  C   LIG    1        2.566  -4.348   4.212  0.00  0.00    -0.070 A 
ATOM      6  C   LIG    1        1.869  -4.044   3.051  0.00  0.00    +0.050 A 
ENDROOT
BRANCH   5   7
ATOM      7  S   LIG    1        2.860  -6.030   4.649  0.00  0.00    -0.110 S 
ATOM      8  C   LIG    1        3.776  -5.892   6.209  0.00  0.00    +0.140 C 
ENDBRANCH   5   7
BRANCH   1   9
ATOM      9  S   LIG    1        0.767  -2.325   1.232  0.00  0.00    -0.110 S 
BRANCH   9  10
ATOM     10  C   LIG    1        0.742  -0.511   1.242  0.00  0.00    +0.070 C 
BRANCH  10  12
ATOM     11  C   LIG    1       -0.019   1.526   0.010  0.00  0.00    +0.030 C 
ATOM     12  C   LIG    1        0.002  -0.004   0.002  0.00  0.00    +0.030 C 
ENDBRANCH  10  12
ENDBRANCH   9  10
ENDBRANCH   1   9
TORSDOF 4
ENDMDL
MODEL       57
REMARK  Name = ZINC000032144311
REMARK                            x       y       z     vdW  Elec       q    Type
REMARK                         _______ _______ _______ _____ _____    ______ ____
ROOT
ATOM      1  C   LIG    1        1.600  -2.593  -2.779  0.00  0.00    +0.100 C 
ATOM      2  S   LIG    1        2.123  -1.269  -3.730  0.00  0.00    -0.410 S 
ENDROOT
BRANCH   1   3
ATOM      3  C   LIG    1        1.867  -3.975  -3.227  0.00  0.00    -0.090 A 
ATOM      4  C   LIG    1        0.936  -4.985  -2.977  0.00  0.00    +0.060 A 
ATOM      5  C   LIG    1        1.192  -6.274  -3.398  0.00  0.00    +0.010 A 
ATOM      6  C   LIG    1        2.368  -6.566  -4.066  0.00  0.00    +0.050 A 
ATOM      7  C   LIG    1        3.295  -5.570  -4.316  0.00  0.00    +0.010 A 
ATOM      8  C   LIG    1        3.049  -4.276  -3.906  0.00  0.00    +0.090 A 
ENDBRANCH   1   3
BRANCH   1   9
ATOM      9  S   LIG    1        0.743  -2.307  -1.267  0.00  0.00    +0.020 S 
BRANCH   9  10
ATOM     10  C   LIG    1        0.718  -0.497  -1.257  0.00  0.00    +0.100 C 
BRANCH  10  12
ATOM     11  C   LIG    1       -0.019   1.526   0.010  0.00  0.00    +0.030 C 
ATOM     12  C   LIG    1        0.002  -0.004   0.002  0.00  0.00    +0.030 C 
ENDBRANCH  10  12
ENDBRANCH   9  10
ENDBRANCH   1   9
TORSDOF 4
ENDMDL
MODEL       58
REMARK  Name = ZINC000002564173
REMARK                            x       y       z     vdW  Elec       q    Type
REMARK                         _______ _______ _______ _____ _____    ______ ____
ROOT
ATOM      1  C   LIG    1        1.562  -2.520  -2.457  0.00  0.00    +0.060 C 
ENDROOT
BRANCH   1   2
ATOM      2  C   LIG    1        1.685  -4.020  -2.397  0.00  0.00    -0.080 A 
ATOM      3  C   LIG    1        2.740  -4.600  -1.718  0.00  0.00    +0.000 A 
ATOM      4  C   LIG    1        2.854  -5.977  -1.663  0.00  0.00    +0.000 A 
ATOM      5  C   LIG    1        1.912  -6.774  -2.286  0.00  0.00    -0.010 A 
ATOM      6  C   LIG    1        0.856  -6.194  -2.964  0.00  0.00    +0.000 A 
ATOM      7  C   LIG    1        0.740  -4.817  -3.016  0.00  0.00    +0.000 A 
ENDBRANCH   1   2
BRANCH   1   8
ATOM      8  C   LIG    1        0.739  -2.027  -1.265  0.00  0.00    -0.020 C 
ATOM      9  C   LIG    1       -0.692  -2.556  -1.380  0.00  0.00    +0.020 C 
BRANCH   8  10
ATOM     10  C   LIG    1        0.718  -0.497  -1.257  0.00  0.00    +0.000 C 
BRANCH  10  12
ATOM     11  C   LIG    1       -0.019   1.526   0.010  0.00  0.00    +0.000 C 
ATOM     12  C   LIG    1        0.002  -0.004   0.002  0.00  0.00    -0.010 C 
ENDBRANCH  10  12
ENDBRANCH   8  10
ENDBRANCH   1   8
TORSDOF 4
ENDMDL
MODEL       59
REMARK  Name = ZINC000012656706
REMARK                            x       y       z     vdW  Elec       q    Type
REMARK                         _______ _______ _______ _____ _____    ______ ____
ROOT
ATOM      1  C   LIG    1        0.020   1.415  -0.089  0.00  0.00    +0.040 C 
ATOM      2  C   LIG    1        0.067  -0.121  -0.136  0.00  0.00    +0.150 C 
ATOM      3  C   LIG    1        0.790  -0.551  -1.411  0.00  0.00    -0.010 C 
ATOM      4  C   LIG    1        1.035  -2.066  -1.407  0.00  0.00    +0.020 C 
ATOM      5  C   LIG    1        1.772  -2.430  -0.119  0.00  0.00    -0.020 C 
ATOM      6  C   LIG    1        2.255  -3.865  -0.101  0.00  0.00    -0.050 C 
ATOM      7  C   LIG    1        2.877  -4.237   1.245  0.00  0.00    +0.010 C 
ATOM      8  C   LIG    1        1.981  -3.854   2.416  0.00  0.00    +0.010 C 
ATOM      9  C   LIG    1        1.681  -2.357   2.378  0.00  0.00    +0.040 C 
ATOM     10  C   LIG    1        3.377  -4.007  -1.159  0.00  0.00    +0.020 C 
ATOM     11  C   LIG    1        1.163  -4.867  -0.468  0.00  0.00    +0.030 C 
ATOM     12  C   LIG    1        0.937  -2.017   1.084  0.00  0.00    +0.130 C 
ATOM     13  C   LIG    1       -0.440  -2.678   1.111  0.00  0.00    +0.010 C 
ATOM     14  O   LIG    1        0.747  -0.594   1.023  0.00  0.00    -0.380 OA
ENDROOT
TORSDOF 0
ENDMDL
MODEL       60
REMARK  Name = ZINC000013162895
REMARK                            x       y       z     vdW  Elec       q    Type
REMARK                         _______ _______ _______ _____ _____    ______ ____
ROOT
ATOM      1  C   LIG    1        1.673  -2.503  -2.400  0.00  0.00    +0.030 C 
ATOM      2  C   LIG    1        3.103  -1.970  -2.283  0.00  0.00    +0.040 C 
ENDROOT
BRANCH   1   3
ATOM      3  C   LIG    1        1.700  -4.010  -2.418  0.00  0.00    -0.030 A 
ATOM      4  C   LIG    1        2.221  -4.723  -1.349  0.00  0.00    -0.040 A 
ATOM      5  C   LIG    1        2.228  -6.104  -1.401  0.00  0.00    +0.260 A 
ATOM      6  N   LIG    1        1.747  -6.742  -2.450  0.00  0.00    -0.490 NA
ATOM      7  C   LIG    1        1.244  -6.097  -3.484  0.00  0.00    +0.260 A 
ATOM      8  C   LIG    1        1.198  -4.716  -3.501  0.00  0.00    -0.040 A 
ENDBRANCH   1   3
BRANCH   1   9
ATOM      9  C   LIG    1        0.849  -2.021  -1.205  0.00  0.00    +0.020 C 
BRANCH   9  10
ATOM     10  C   LIG    1        0.718  -0.497  -1.257  0.00  0.00    -0.020 C 
ATOM     11  C   LIG    1       -0.089  -0.097  -2.493  0.00  0.00    +0.020 C 
BRANCH  10  13
ATOM     12  C   LIG    1       -0.019   1.526   0.010  0.00  0.00    +0.000 C 
ATOM     13  C   LIG    1        0.002  -0.004   0.002  0.00  0.00    +0.000 C 
ENDBRANCH  10  13
ENDBRANCH   9  10
ENDBRANCH   1   9
TORSDOF 4
ENDMDL
MODEL       61
REMARK  Name = ZINC000013162892
REMARK                            x       y       z     vdW  Elec       q    Type
REMARK                         _______ _______ _______ _____ _____    ______ ____
ROOT
ATOM      1  C   LIG    1        1.615  -2.630  -2.369  0.00  0.00    +0.020 C 
ATOM      2  C   LIG    1        0.922  -2.248  -3.679  0.00  0.00    +0.030 C 
ENDROOT
BRANCH   1   3
ATOM      3  C   LIG    1        1.658  -4.131  -2.242  0.00  0.00    -0.030 A 
ATOM      4  C   LIG    1        0.488  -4.875  -2.226  0.00  0.00    -0.040 A 
ATOM      5  C   LIG    1        0.567  -6.250  -2.108  0.00  0.00    +0.250 A 
ATOM      6  N   LIG    1        1.736  -6.853  -2.012  0.00  0.00    -0.490 NA
ATOM      7  C   LIG    1        2.868  -6.177  -2.024  0.00  0.00    +0.250 A 
ATOM      8  C   LIG    1        2.868  -4.800  -2.145  0.00  0.00    -0.040 A 
ENDBRANCH   1   3
BRANCH   1   9
ATOM      9  C   LIG    1        0.837  -2.040  -1.190  0.00  0.00    +0.030 C 
BRANCH   9  10
ATOM     10  C   LIG    1        1.602  -2.304   0.108  0.00  0.00    -0.020 C 
ATOM     11  C   LIG    1        2.921  -1.529   0.089  0.00  0.00    +0.010 C 
BRANCH  10  13
ATOM     12  C   LIG    1        1.468  -2.222   2.602  0.00  0.00    +0.000 C 
ATOM     13  C   LIG    1        0.759  -1.846   1.299  0.00  0.00    +0.000 C 
ENDBRANCH  10  13
ENDBRANCH   9  10
ENDBRANCH   1   9
TORSDOF 4
ENDMDL
MODEL       62
REMARK  Name = ZINC000017918502
REMARK                            x       y       z     vdW  Elec       q    Type
REMARK                         _______ _______ _______ _____ _____    ______ ____
ROOT
ATOM      1  C   LIG    1       -2.380  -2.968  -0.051  0.00  0.00    -0.010 C 
ATOM      2  C   LIG    1       -3.011  -2.684  -1.416  0.00  0.00    -0.020 C 
ATOM      3  C   LIG    1       -4.372  -3.377  -1.503  0.00  0.00    +0.010 C 
ATOM      4  C   LIG    1       -4.188  -4.886  -1.330  0.00  0.00    -0.020 C 
ATOM      5  C   LIG    1       -3.558  -5.170   0.035  0.00  0.00    +0.010 C 
ATOM      6  C   LIG    1       -3.273  -5.419  -2.435  0.00  0.00    +0.010 C 
ATOM      7  C   LIG    1       -3.195  -1.175  -1.589  0.00  0.00    +0.010 C 
ATOM      8  C   LIG    1       -2.196  -4.477   0.122  0.00  0.00    -0.020 C 
ATOM      9  C   LIG    1       -1.566  -4.760   1.487  0.00  0.00    +0.010 C 
ENDROOT
BRANCH   1  10
ATOM     10  C   LIG    1       -1.019  -2.275   0.036  0.00  0.00    +0.030 C 
BRANCH  10  11
ATOM     11  C   LIG    1       -0.093  -2.832  -1.046  0.00  0.00    +0.020 C 
BRANCH  11  13
ATOM     12  C   LIG    1        2.333  -2.492  -1.950  0.00  0.00    +0.050 C 
ATOM     13  C   LIG    1        1.237  -2.125  -0.983  0.00  0.00    +0.350 C 
ATOM     14  O   LIG    1        1.424  -1.264  -0.156  0.00  0.00    -0.460 OA
ENDBRANCH  11  13
ENDBRANCH  10  11
ENDBRANCH   1  10
TORSDOF 3
ENDMDL
MODEL       63
REMARK  Name = ZINC000013281612
REMARK                            x       y       z     vdW  Elec       q    Type
REMARK                         _______ _______ _______ _____ _____    ______ ____
ROOT
ATOM      1  C   LIG    1       -0.018   1.503   0.010  0.00  0.00    +0.100 C 
ATOM      2  C   LIG    1        0.002  -0.004   0.002  0.00  0.00    -0.140 A 
ATOM      3  C   LIG    1        0.006  -0.695  -1.193  0.00  0.00    +0.260 A 
ATOM      4  N   LIG    1        0.024  -2.014  -1.213  0.00  0.00    -0.470 NA
ATOM      5  C   LIG    1        0.038  -2.725  -0.095  0.00  0.00    +0.110 A 
ATOM      6  C   LIG    1        0.036  -2.094   1.146  0.00  0.00    -0.110 A 
ATOM      7  C   LIG    1        0.053  -2.905   2.415  0.00  0.00    +0.120 C 
ATOM      8  C   LIG    1        0.023  -0.712   1.197  0.00  0.00    +0.080 A 
ENDROOT
BRANCH   5   9
ATOM      9  S   LIG    1        0.062  -4.484  -0.180  0.00  0.00    -0.070 S 
BRANCH   9  10
ATOM     10  C   LIG    1        0.059  -4.807  -1.965  0.00  0.00    -0.040 C 
ATOM     11  C   LIG    1       -1.201  -4.206  -2.589  0.00  0.00    +0.050 C 
ATOM     12  C   LIG    1        0.079  -6.317  -2.210  0.00  0.00    +0.060 C 
ATOM     13  C   LIG    1        1.297  -4.171  -2.600  0.00  0.00    +0.050 C 
ENDBRANCH   9  10
ENDBRANCH   5   9
TORSDOF 2
ENDMDL
MODEL       64
REMARK  Name = ZINC000013535244
REMARK                            x       y       z     vdW  Elec       q    Type
REMARK                         _______ _______ _______ _____ _____    ______ ____
ROOT
ATOM      1  C   LIG    1       -0.018   1.503   0.010  0.00  0.00    +0.110 C 
ATOM      2  C   LIG    1        0.002  -0.004   0.002  0.00  0.00    -0.030 A 
ATOM      3  C   LIG    1        0.006  -0.684  -1.208  0.00  0.00    +0.010 A 
ATOM      4  C   LIG    1        0.025  -2.050  -1.237  0.00  0.00    +0.080 A 
ATOM      5  C   LIG    1        0.040  -2.769  -0.038  0.00  0.00    -0.110 A 
ATOM      6  C   LIG    1        0.061  -4.234  -0.033  0.00  0.00    +0.150 A 
ATOM      7  C   LIG    1        0.077  -4.877   1.161  0.00  0.00    -0.120 A 
ATOM      8  C   LIG    1        0.073  -4.142   2.364  0.00  0.00    +0.340 A 
ATOM      9  N   LIG    1        0.053  -2.798   2.371  0.00  0.00    -0.550 N 
ATOM     10  H   LIG    1        0.051  -2.324   3.217  0.00  0.00    +0.430 HD
ATOM     11  S   LIG    1        0.093  -4.984   3.855  0.00  0.00    -0.590 S 
ATOM     12  C   LIG    1        0.098  -6.383   1.202  0.00  0.00    +0.140 C 
ATOM     13  C   LIG    1        0.037  -2.083   1.191  0.00  0.00    +0.150 A 
ATOM     14  C   LIG    1        0.023  -0.693   1.196  0.00  0.00    -0.010 A 
ENDROOT
TORSDOF 0
ENDMDL
MODEL       65
REMARK  Name = ZINC000020358989
REMARK                            x       y       z     vdW  Elec       q    Type
REMARK                         _______ _______ _______ _____ _____    ______ ____
ROOT
ATOM      1  N   LIG    1        2.162  -4.523  -3.738  0.00  0.00    -0.750 N 
ATOM      2  H   LIG    1        2.515  -3.884  -4.376  0.00  0.00    +0.400 HD
ENDROOT
BRANCH   1   3
ATOM      3  C   LIG    1        2.306  -5.893  -3.967  0.00  0.00    +0.210 A 
ATOM      4  C   LIG    1        1.794  -6.809  -3.057  0.00  0.00    -0.070 A 
ATOM      5  C   LIG    1        1.938  -8.163  -3.288  0.00  0.00    +0.050 A 
ATOM      6  C   LIG    1        2.591  -8.607  -4.423  0.00  0.00    -0.150 A 
ATOM      7  C   LIG    1        3.101  -7.698  -5.331  0.00  0.00    +0.050 A 
ATOM      8  C   LIG    1        2.746 -10.086  -4.671  0.00  0.00    +0.070 C 
ATOM      9  C   LIG    1        2.956  -6.343  -5.110  0.00  0.00    -0.070 A 
ENDBRANCH   1   3
BRANCH   1  10
ATOM     10  C   LIG    1        1.476  -4.051  -2.532  0.00  0.00    +0.240 C 
BRANCH  10  11
ATOM     11  C   LIG    1        1.455  -2.521  -2.524  0.00  0.00    +0.010 C 
BRANCH  11  12
ATOM     12  C   LIG    1        0.739  -2.027  -1.265  0.00  0.00    +0.020 C 
BRANCH  12  13
ATOM     13  C   LIG    1        0.718  -0.497  -1.257  0.00  0.00    +0.000 C 
BRANCH  13  15
ATOM     14  C   LIG    1       -0.019   1.526   0.010  0.00  0.00    +0.000 C 
ATOM     15  C   LIG    1        0.002  -0.004   0.002  0.00  0.00    -0.010 C 
ENDBRANCH  13  15
ENDBRANCH  12  13
ENDBRANCH  11  12
ENDBRANCH  10  11
ENDBRANCH   1  10
TORSDOF 6
ENDMDL
MODEL       66
REMARK  Name = ZINC000034206890
REMARK                            x       y       z     vdW  Elec       q    Type
REMARK                         _______ _______ _______ _____ _____    ______ ____
ROOT
ATOM      1  C   LIG    1        1.550  -2.512  -2.439  0.00  0.00    -0.110 A 
ATOM      2  C   LIG    1        1.174  -2.171  -3.725  0.00  0.00    +0.060 A 
ATOM      3  C   LIG    1        1.915  -2.614  -4.804  0.00  0.00    -0.020 A 
ATOM      4  C   LIG    1        3.038  -3.402  -4.595  0.00  0.00    +0.120 A 
ATOM      5  C   LIG    1        3.413  -3.743  -3.304  0.00  0.00    -0.080 A 
ATOM      6  C   LIG    1        2.671  -3.293  -2.229  0.00  0.00    +0.040 A 
ENDROOT
BRANCH   1   7
ATOM      7  C   LIG    1        0.739  -2.027  -1.265  0.00  0.00    +0.030 C 
ATOM      8  C   LIG    1       -0.692  -2.556  -1.380  0.00  0.00    +0.020 C 
BRANCH   7   9
ATOM      9  C   LIG    1        0.718  -0.497  -1.257  0.00  0.00    +0.010 C 
BRANCH   9  11
ATOM     10  C   LIG    1       -0.019   1.526   0.010  0.00  0.00    +0.000 C 
ATOM     11  C   LIG    1        0.002  -0.004   0.002  0.00  0.00    -0.010 C 
ENDBRANCH   9  11
ENDBRANCH   7   9
ENDBRANCH   1   7
BRANCH   4  12
ATOM     12  O   LIG    1        3.769  -3.839  -5.654  0.00  0.00    -0.320 OA
ATOM     13  C   LIG    1        4.912  -4.646  -5.364  0.00  0.00    +0.250 C 
ENDBRANCH   4  12
TORSDOF 4
ENDMDL
MODEL       67
REMARK  Name = ZINC000195768631
REMARK                            x       y       z     vdW  Elec       q    Type
REMARK                         _______ _______ _______ _____ _____    ______ ____
ROOT
ATOM      1  C   LIG    1        2.309  -0.075  -1.542  0.00  0.00    +0.070 C 
ENDROOT
BRANCH   1   2
ATOM      2  C   LIG    1        3.015  -0.561  -2.781  0.00  0.00    -0.080 A 
ATOM      3  C   LIG    1        3.698  -1.763  -2.762  0.00  0.00    +0.000 A 
ATOM      4  C   LIG    1        4.345  -2.209  -3.899  0.00  0.00    +0.000 A 
ATOM      5  C   LIG    1        4.309  -1.453  -5.056  0.00  0.00    -0.010 A 
ATOM      6  C   LIG    1        3.624  -0.252  -5.076  0.00  0.00    +0.000 A 
ATOM      7  C   LIG    1        2.974   0.192  -3.940  0.00  0.00    +0.000 A 
ENDBRANCH   1   2
BRANCH   1   8
ATOM      8  C   LIG    1        0.874  -0.605  -1.531  0.00  0.00    -0.250 C 
BRANCH   8  10
ATOM      9  C   LIG    1       -0.023   1.859   0.012  0.00  0.00    -0.240 C 
ATOM     10 SI   LIG    1        0.002  -0.004   0.002  0.00  0.00    +1.010 Si
ATOM     11  C   LIG    1       -1.746  -0.649   0.015  0.00  0.00    -0.240 C 
ATOM     12  C   LIG    1        0.903  -0.621   1.511  0.00  0.00    -0.240 C 
ENDBRANCH   8  10
ENDBRANCH   1   8
TORSDOF 3
ENDMDL
MODEL       68
REMARK  Name = ZINC000071789892
REMARK                            x       y       z     vdW  Elec       q    Type
REMARK                         _______ _______ _______ _____ _____    ______ ____
ROOT
ATOM      1  C   LIG    1        0.739  -2.027  -1.265  0.00  0.00    -0.020 C 
ATOM      2  C   LIG    1       -0.692  -2.556  -1.380  0.00  0.00    +0.020 C 
ENDROOT
BRANCH   1   3
ATOM      3  C   LIG    1        1.562  -2.520  -2.457  0.00  0.00    -0.020 C 
ATOM      4  C   LIG    1        1.583  -4.050  -2.466  0.00  0.00    +0.020 C 
BRANCH   3   5
ATOM      5  C   LIG    1        2.993  -1.991  -2.342  0.00  0.00    +0.010 C 
BRANCH   5   6
ATOM      6  C   LIG    1        3.782  -2.378  -3.595  0.00  0.00    -0.010 C 
ATOM      7  C   LIG    1        5.213  -1.849  -3.480  0.00  0.00    +0.000 C 
ENDBRANCH   5   6
ENDBRANCH   3   5
ENDBRANCH   1   3
BRANCH   1   8
ATOM      8  C   LIG    1        0.718  -0.497  -1.257  0.00  0.00    +0.010 C 
BRANCH   8  10
ATOM      9  C   LIG    1       -0.019   1.526   0.010  0.00  0.00    +0.000 C 
ATOM     10  C   LIG    1        0.002  -0.004   0.002  0.00  0.00    -0.010 C 
ENDBRANCH   8  10
ENDBRANCH   1   8
TORSDOF 5
ENDMDL
MODEL       69
REMARK  Name = ZINC000199547712
REMARK                            x       y       z     vdW  Elec       q    Type
REMARK                         _______ _______ _______ _____ _____    ______ ____
ROOT
ATOM      1  C   LIG    1       -2.822  -2.584  -0.109  0.00  0.00    -0.110 A 
ATOM      2  C   LIG    1       -3.756  -2.263   0.859  0.00  0.00    +0.050 A 
ATOM      3  C   LIG    1       -5.049  -2.739   0.757  0.00  0.00    -0.020 A 
ATOM      4  C   LIG    1       -5.410  -3.540  -0.317  0.00  0.00    +0.120 A 
ATOM      5  C   LIG    1       -4.471  -3.861  -1.286  0.00  0.00    -0.080 A 
ATOM      6  C   LIG    1       -3.180  -3.378  -1.183  0.00  0.00    +0.040 A 
ENDROOT
BRANCH   4   7
ATOM      7  O   LIG    1       -6.681  -4.010  -0.419  0.00  0.00    -0.320 OA
ATOM      8  C   LIG    1       -6.981  -4.829  -1.551  0.00  0.00    +0.250 C 
ENDBRANCH   4   7
BRANCH   1   9
ATOM      9  C   LIG    1       -1.413  -2.063   0.004  0.00  0.00    +0.030 C 
BRANCH   9  10
ATOM     10  C   LIG    1       -0.784  -2.572   1.303  0.00  0.00    +0.010 C 
ATOM     11  C   LIG    1       -0.649  -4.095   1.242  0.00  0.00    +0.010 C 
ENDBRANCH   9  10
BRANCH   9  12
ATOM     12  C   LIG    1       -1.433  -0.534   0.013  0.00  0.00    +0.010 C 
BRANCH  12  14
ATOM     13  C   LIG    1       -0.019   1.526   0.010  0.00  0.00    +0.000 C 
ATOM     14  C   LIG    1        0.002  -0.004   0.002  0.00  0.00    -0.010 C 
ENDBRANCH  12  14
ENDBRANCH   9  12
ENDBRANCH   1   9
TORSDOF 5
ENDMDL
MODEL       70
REMARK  Name = ZINC000002037797
REMARK                            x       y       z     vdW  Elec       q    Type
REMARK                         _______ _______ _______ _____ _____    ______ ____
ROOT
ATOM      1  C   LIG    1       -1.413  -2.063   0.004  0.00  0.00    +0.030 C 
ENDROOT
BRANCH   1   2
ATOM      2  C   LIG    1       -2.822  -2.584  -0.109  0.00  0.00    -0.070 A 
ATOM      3  C   LIG    1       -3.757  -2.264   0.858  0.00  0.00    +0.000 A 
ATOM      4  C   LIG    1       -5.050  -2.741   0.754  0.00  0.00    +0.000 A 
ATOM      5  C   LIG    1       -5.408  -3.540  -0.317  0.00  0.00    -0.010 A 
ATOM      6  C   LIG    1       -4.473  -3.860  -1.283  0.00  0.00    +0.000 A 
ATOM      7  C   LIG    1       -3.182  -3.378  -1.182  0.00  0.00    +0.000 A 
ENDBRANCH   1   2
BRANCH   1   8
ATOM      8  C   LIG    1       -0.784  -2.572   1.303  0.00  0.00    +0.010 C 
ATOM      9  C   LIG    1       -0.649  -4.095   1.242  0.00  0.00    +0.000 C 
ENDBRANCH   1   8
BRANCH   1  10
ATOM     10  C   LIG    1       -1.433  -0.534   0.013  0.00  0.00    +0.010 C 
BRANCH  10  12
ATOM     11  C   LIG    1       -0.019   1.526   0.010  0.00  0.00    +0.000 C 
ATOM     12  C   LIG    1        0.002  -0.004   0.002  0.00  0.00    -0.010 C 
ENDBRANCH  10  12
ENDBRANCH   1  10
TORSDOF 4
ENDMDL
MODEL       71
REMARK  Name = ZINC000015146262
REMARK                            x       y       z     vdW  Elec       q    Type
REMARK                         _______ _______ _______ _____ _____    ______ ____
ROOT
ATOM      1  C   LIG    1       -2.790  -3.740   1.725  0.00  0.00    +0.000 C 
ENDROOT
BRANCH   1   2
ATOM      2  C   LIG    1       -1.366  -3.259   2.011  0.00  0.00    +0.010 C 
BRANCH   2   3
ATOM      3  C   LIG    1       -1.289  -1.744   1.805  0.00  0.00    +0.050 C 
BRANCH   3   5
ATOM      4  C   LIG    1        0.757  -0.563   1.192  0.00  0.00    -0.050 C 
ATOM      5  C   LIG    1        0.113  -1.270   2.087  0.00  0.00    -0.050 C 
BRANCH   4   7
ATOM      6  C   LIG    1        0.248   1.428  -0.196  0.00  0.00    +0.010 C 
ATOM      7  C   LIG    1        0.043  -0.081  -0.044  0.00  0.00    +0.040 C 
ENDBRANCH   4   7
ENDBRANCH   3   5
ENDBRANCH   2   3
ENDBRANCH   1   2
BRANCH   1   8
ATOM      8  C   LIG    1       -2.867  -5.255   1.931  0.00  0.00    +0.000 C 
BRANCH   8   9
ATOM      9  C   LIG    1       -4.291  -5.737   1.645  0.00  0.00    +0.000 C 
BRANCH   9  10
ATOM     10  C   LIG    1       -4.367  -7.251   1.851  0.00  0.00    +0.000 C 
BRANCH  10  11
ATOM     11  C   LIG    1       -5.791  -7.733   1.565  0.00  0.00    +0.020 C 
BRANCH  11  12
ATOM     12  C   LIG    1       -5.868  -9.247   1.772  0.00  0.00    +0.150 C 
BRANCH  12  13
ATOM     13  O   LIG    1       -7.198  -9.697   1.504  0.00  0.00    -0.580 OA
ATOM     14  H   LIG    1       -7.320 -10.650   1.615  0.00  0.00    +0.380 HD
ENDBRANCH  12  13
ENDBRANCH  11  12
ENDBRANCH  10  11
ENDBRANCH   9  10
ENDBRANCH   8   9
ENDBRANCH   1   8
TORSDOF 10
ENDMDL
MODEL       72
REMARK  Name = ZINC000146769844
REMARK                            x       y       z     vdW  Elec       q    Type
REMARK                         _______ _______ _______ _____ _____    ______ ____
ROOT
ATOM      1  C   LIG    1        1.276  -2.474  -2.982  0.00  0.00    +0.000 C 
ATOM      2  C   LIG    1        2.752  -2.300  -2.619  0.00  0.00    -0.020 C 
ATOM      3  C   LIG    1        3.623  -2.864  -3.743  0.00  0.00    +0.010 C 
ATOM      4  C   LIG    1        3.315  -4.351  -3.930  0.00  0.00    +0.000 C 
ATOM      5  C   LIG    1        1.839  -4.524  -4.293  0.00  0.00    +0.010 C 
ATOM      6  C   LIG    1        3.060  -0.813  -2.432  0.00  0.00    +0.020 C 
ATOM      7  C   LIG    1        0.968  -3.961  -3.169  0.00  0.00    -0.060 C 
ATOM      8  C   LIG    1       -0.508  -4.134  -3.532  0.00  0.00    +0.010 C 
ATOM      9  C   LIG    1        1.265  -4.710  -1.869  0.00  0.00    +0.020 C 
ENDROOT
BRANCH   1  10
ATOM     10  C   LIG    1        0.405  -1.910  -1.857  0.00  0.00    +0.030 C 
BRANCH  10  11
ATOM     11  C   LIG    1        0.327  -0.387  -1.986  0.00  0.00    -0.010 C 
BRANCH  11  13
ATOM     12  C   LIG    1       -0.828   1.669  -1.161  0.00  0.00    -0.010 C 
ATOM     13  C   LIG    1       -0.656   0.163  -0.951  0.00  0.00    +0.190 C 
BRANCH  13  14
ATOM     14  O   LIG    1       -0.150  -0.080   0.363  0.00  0.00    -0.560 OA
ATOM     15  H   LIG    1        0.708   0.332   0.536  0.00  0.00    +0.370 HD
ENDBRANCH  13  14
ENDBRANCH  11  13
ENDBRANCH  10  11
ENDBRANCH   1  10
TORSDOF 4
ENDMDL
MODEL       73
REMARK  Name = ZINC000146769646
REMARK                            x       y       z     vdW  Elec       q    Type
REMARK                         _______ _______ _______ _____ _____    ______ ____
ROOT
ATOM      1  C   LIG    1        1.350  -2.519  -2.594  0.00  0.00    +0.000 C 
ATOM      2  C   LIG    1        0.658  -1.946  -3.816  0.00  0.00    -0.020 C 
ATOM      3  C   LIG    1        1.081  -2.618  -5.114  0.00  0.00    +0.010 C 
ATOM      4  C   LIG    1        0.948  -4.136  -5.006  0.00  0.00    +0.000 C 
ATOM      5  C   LIG    1        1.856  -4.635  -3.885  0.00  0.00    +0.010 C 
ATOM      6  C   LIG    1       -0.862  -1.969  -3.667  0.00  0.00    +0.010 C 
ATOM      7  C   LIG    1        1.443  -4.035  -2.546  0.00  0.00    -0.050 C 
ATOM      8  C   LIG    1        0.123  -4.652  -2.079  0.00  0.00    +0.020 C 
ATOM      9  C   LIG    1        2.523  -4.413  -1.508  0.00  0.00    +0.010 C 
ENDROOT
BRANCH   1  10
ATOM     10  C   LIG    1        0.630  -2.023  -1.329  0.00  0.00    +0.020 C 
BRANCH  10  11
ATOM     11  C   LIG    1        0.718  -0.497  -1.257  0.00  0.00    -0.020 C 
BRANCH  11  13
ATOM     12  C   LIG    1       -0.019   1.526   0.010  0.00  0.00    +0.000 C 
ATOM     13  C   LIG    1        0.002  -0.004   0.002  0.00  0.00    +0.200 C 
BRANCH  13  14
ATOM     14  O   LIG    1        0.693  -0.477   1.160  0.00  0.00    -0.560 OA
ATOM     15  H   LIG    1        1.611  -0.180   1.219  0.00  0.00    +0.370 HD
ENDBRANCH  13  14
ENDBRANCH  11  13
ENDBRANCH  10  11
ENDBRANCH   1  10
TORSDOF 4
ENDMDL
MODEL       74
REMARK  Name = ZINC000015781584
REMARK                            x       y       z     vdW  Elec       q    Type
REMARK                         _______ _______ _______ _____ _____    ______ ____
ROOT
ATOM      1  C   LIG    1        0.851  -2.052   1.311  0.00  0.00    +0.050 C 
ENDROOT
BRANCH   1   2
ATOM      2  C   LIG    1        1.345  -2.574   2.635  0.00  0.00    +0.140 A 
ATOM      3  C   LIG    1        2.704  -2.682   2.862  0.00  0.00    -0.040 A 
ATOM      4  C   LIG    1        3.149  -3.162   4.085  0.00  0.00    +0.060 A 
ATOM      5  C   LIG    1        2.206  -3.518   5.036  0.00  0.00    -0.050 A 
ATOM      6  C   LIG    1        0.863  -3.383   4.738  0.00  0.00    +0.260 A 
ATOM      7  N   LIG    1        0.477  -2.917   3.566  0.00  0.00    -0.480 NA
ENDBRANCH   1   2
BRANCH   1   8
ATOM      8  C   LIG    1        0.828  -0.523   1.341  0.00  0.00    +0.020 C 
BRANCH   8  10
ATOM      9  C   LIG    1       -0.153   1.476   2.475  0.00  0.00    +0.000 C 
ATOM     10  C   LIG    1       -0.209  -0.049   2.362  0.00  0.00    +0.000 C 
ENDBRANCH   8  10
ENDBRANCH   1   8
BRANCH   1  11
ATOM     11  C   LIG    1        1.784  -2.526   0.195  0.00  0.00    +0.020 C 
BRANCH  11  12
ATOM     12  C   LIG    1        1.204  -2.122  -1.162  0.00  0.00    +0.000 C 
ATOM     13  C   LIG    1        2.187  -2.502  -2.271  0.00  0.00    +0.000 C 
ENDBRANCH  11  12
ENDBRANCH   1  11
TORSDOF 5
ENDMDL
MODEL       75
REMARK  Name = ZINC000015768251
REMARK                            x       y       z     vdW  Elec       q    Type
REMARK                         _______ _______ _______ _____ _____    ______ ____
ROOT
ATOM      1  C   LIG    1        0.060  -4.247  -0.021  0.00  0.00    +0.070 C 
ATOM      2  C   LIG    1        0.075  -4.925   1.138  0.00  0.00    +0.000 C 
ENDROOT
BRANCH   1   7
ATOM      3  C   LIG    1       -0.018   1.503   0.010  0.00  0.00    +0.090 C 
ATOM      4  C   LIG    1        0.002  -0.004   0.002  0.00  0.00    -0.080 A 
ATOM      5  C   LIG    1        0.006  -0.686  -1.202  0.00  0.00    +0.000 A 
ATOM      6  C   LIG    1        0.024  -2.065  -1.218  0.00  0.00    +0.030 A 
ATOM      7  C   LIG    1        0.040  -2.773  -0.013  0.00  0.00    -0.070 A 
ATOM      8  C   LIG    1        0.036  -2.078   1.199  0.00  0.00    +0.030 A 
ATOM      9  C   LIG    1        0.023  -0.699   1.198  0.00  0.00    +0.000 A 
ENDBRANCH   1   7
BRANCH   2  10
ATOM     10  C   LIG    1        0.095  -6.398   1.130  0.00  0.00    +0.160 A 
ATOM     11  C   LIG    1        0.105  -7.098   2.339  0.00  0.00    -0.020 A 
ATOM     12  C   LIG    1        0.123  -8.481   2.314  0.00  0.00    +0.070 A 
ATOM     13  C   LIG    1        0.132  -9.122   1.082  0.00  0.00    -0.040 A 
ATOM     14  C   LIG    1        0.122  -8.367  -0.077  0.00  0.00    +0.270 A 
ATOM     15  N   LIG    1        0.099  -7.052  -0.028  0.00  0.00    -0.480 NA
ENDBRANCH   2  10
TORSDOF 2
ENDMDL
MODEL       76
REMARK  Name = ZINC000016123565
REMARK                            x       y       z     vdW  Elec       q    Type
REMARK                         _______ _______ _______ _____ _____    ______ ____
ROOT
ATOM      1  C   LIG    1       -0.018   1.503   0.010  0.00  0.00    +0.120 C 
ATOM      2  C   LIG    1        0.002  -0.004   0.002  0.00  0.00    -0.090 A 
ATOM      3  C   LIG    1        0.007  -0.707  -1.113  0.00  0.00    -0.030 A 
ATOM      4  S   LIG    1        0.032  -2.429  -0.783  0.00  0.00    +0.110 S 
ATOM      5  C   LIG    1        0.036  -2.164   0.956  0.00  0.00    -0.140 A 
ATOM      6  C   LIG    1        0.053  -3.078   2.015  0.00  0.00    +0.000 A 
ATOM      7  C   LIG    1        0.054  -2.629   3.316  0.00  0.00    +0.050 A 
ATOM      8  C   LIG    1        0.036  -1.267   3.583  0.00  0.00    +0.030 A 
ATOM      9  C   LIG    1        0.019  -0.361   2.567  0.00  0.00    +0.060 A 
ATOM     10 CL   LIG    1        0.076  -4.783   1.688  0.00  0.00    -0.060 Cl
ATOM     11  C   LIG    1        0.024  -0.793   1.223  0.00  0.00    -0.060 A 
ENDROOT
TORSDOF 0
ENDMDL
MODEL       77
REMARK  Name = ZINC000066383321
REMARK                            x       y       z     vdW  Elec       q    Type
REMARK                         _______ _______ _______ _____ _____    ______ ____
ROOT
ATOM      1  C   LIG    1       -0.016   1.321   0.009  0.00  0.00    +0.000 C 
ATOM      2  C   LIG    1       -0.141   0.003   0.075  0.00  0.00    -0.110 C 
ATOM      3  C   LIG    1        0.986  -1.008   0.043  0.00  0.00    +0.060 C 
ATOM      4  C   LIG    1        0.336  -2.404   0.139  0.00  0.00    +0.010 C 
ATOM      5  C   LIG    1       -1.109  -2.174  -0.371  0.00  0.00    +0.020 C 
ATOM      6  C   LIG    1       -1.441  -0.772   0.204  0.00  0.00    +0.050 C 
ENDROOT
BRANCH   1   7
ATOM      7  C   LIG    1        1.327   1.938   0.029  0.00  0.00    -0.050 A 
ATOM      8  C   LIG    1        1.461   3.323   0.135  0.00  0.00    +0.010 A 
ATOM      9  C   LIG    1        2.718   3.892   0.154  0.00  0.00    +0.000 A 
ATOM     10  C   LIG    1        3.844   3.093   0.067  0.00  0.00    -0.010 A 
ATOM     11  C   LIG    1        3.718   1.719  -0.039  0.00  0.00    +0.000 A 
ATOM     12  C   LIG    1        2.467   1.137  -0.053  0.00  0.00    +0.000 A 
ENDBRANCH   1   7
TORSDOF 1
ENDMDL
MODEL       78
REMARK  Name = ZINC000016291508
REMARK                            x       y       z     vdW  Elec       q    Type
REMARK                         _______ _______ _______ _____ _____    ______ ____
ROOT
ATOM      1  C   LIG    1       -0.018   1.503   0.010  0.00  0.00    +0.090 C 
ATOM      2  C   LIG    1        0.002  -0.004   0.002  0.00  0.00    -0.080 A 
ATOM      3  C   LIG    1        0.006  -0.686  -1.202  0.00  0.00    +0.000 A 
ATOM      4  C   LIG    1        0.025  -2.065  -1.218  0.00  0.00    +0.030 A 
ATOM      5  C   LIG    1        0.041  -2.774  -0.013  0.00  0.00    -0.070 A 
ATOM      6  C   LIG    1        0.037  -2.078   1.199  0.00  0.00    +0.020 A 
ATOM      7  C   LIG    1        0.023  -0.699   1.199  0.00  0.00    +0.000 A 
ENDROOT
BRANCH   5   8
ATOM      8  C   LIG    1        0.061  -4.246  -0.021  0.00  0.00    +0.040 C 
ATOM      9  C   LIG    1        0.077  -4.926   1.142  0.00  0.00    +0.060 C 
BRANCH   9  10
ATOM     10  C   LIG    1        0.098  -6.391   1.134  0.00  0.00    +0.010 A 
ATOM     11  C   LIG    1        0.109  -7.199   2.234  0.00  0.00    -0.040 A 
ATOM     12  C   LIG    1        0.127  -8.524   1.762  0.00  0.00    -0.060 A 
ATOM     13  C   LIG    1        0.126  -8.466   0.415  0.00  0.00    +0.180 A 
ATOM     14  O   LIG    1        0.103  -7.177   0.038  0.00  0.00    -0.170 OA
ENDBRANCH   9  10
ENDBRANCH   5   8
TORSDOF 2
ENDMDL
MODEL       79
REMARK  Name = ZINC000016637831
REMARK                            x       y       z     vdW  Elec       q    Type
REMARK                         _______ _______ _______ _____ _____    ______ ____
ROOT
ATOM      1  C   LIG    1        1.523  -4.054   2.464  0.00  0.00    +0.420 C 
ATOM      2  O   LIG    1        0.997  -4.664   1.555  0.00  0.00    -0.450 OA
ENDROOT
BRANCH   1   3
ATOM      3  C   LIG    1        2.154  -4.758   3.514  0.00  0.00    -0.310 A 
ATOM      4  C   LIG    1        2.244  -6.123   3.616  0.00  0.00    +0.110 A 
ATOM      5  C   LIG    1        2.913  -6.539   4.740  0.00  0.00    -0.010 A 
ATOM      6  C   LIG    1        3.358  -5.555   5.535  0.00  0.00    -0.050 A 
ATOM      7  S   LIG    1        2.958  -4.025   4.895  0.00  0.00    +0.230 S 
ENDBRANCH   1   3
BRANCH   1   8
ATOM      8  C   LIG    1        1.503  -2.548   2.473  0.00  0.00    +0.030 C 
BRANCH   8   9
ATOM      9  C   LIG    1        0.763  -2.041   1.233  0.00  0.00    +0.030 C 
BRANCH   9  10
ATOM     10  C   LIG    1        0.742  -0.511   1.242  0.00  0.00    +0.000 C 
BRANCH  10  12
ATOM     11  C   LIG    1       -0.019   1.526   0.010  0.00  0.00    +0.000 C 
ATOM     12  C   LIG    1        0.002  -0.004   0.002  0.00  0.00    -0.010 C 
ENDBRANCH  10  12
ENDBRANCH   9  10
ENDBRANCH   8   9
ENDBRANCH   1   8
TORSDOF 5
ENDMDL
MODEL       80
REMARK  Name = ZINC000001660000
REMARK                            x       y       z     vdW  Elec       q    Type
REMARK                         _______ _______ _______ _____ _____    ______ ____
ROOT
ATOM      1  C   LIG    1       -0.016   1.321   0.009  0.00  0.00    -0.010 C 
ATOM      2  C   LIG    1        0.002  -0.004   0.002  0.00  0.00    +0.000 C 
ENDROOT
BRANCH   2   3
ATOM      3  C   LIG    1       -1.268  -0.760   0.010  0.00  0.00    -0.060 A 
ATOM      4  C   LIG    1       -2.487  -0.082   0.020  0.00  0.00    +0.000 A 
ATOM      5  C   LIG    1       -3.669  -0.794   0.027  0.00  0.00    +0.000 A 
ATOM      6  C   LIG    1       -3.647  -2.178   0.026  0.00  0.00    +0.000 A 
ATOM      7  C   LIG    1       -2.441  -2.856   0.017  0.00  0.00    +0.000 A 
ATOM      8  C   LIG    1       -1.252  -2.156   0.002  0.00  0.00    +0.010 A 
ENDBRANCH   2   3
BRANCH   1   9
ATOM      9  C   LIG    1        1.279   2.093   0.001  0.00  0.00    +0.120 C 
BRANCH   9  10
ATOM     10  C   LIG    1        1.282   3.056  -1.158  0.00  0.00    -0.080 A 
ATOM     11  C   LIG    1        1.774   2.657  -2.387  0.00  0.00    +0.010 A 
ATOM     12  C   LIG    1        1.777   3.541  -3.450  0.00  0.00    +0.000 A 
ATOM     13  C   LIG    1        1.288   4.824  -3.284  0.00  0.00    +0.000 A 
ATOM     14  C   LIG    1        0.796   5.222  -2.055  0.00  0.00    +0.000 A 
ATOM     15  C   LIG    1        0.789   4.337  -0.993  0.00  0.00    +0.000 A 
ENDBRANCH   9  10
ENDBRANCH   1   9
TORSDOF 3
ENDMDL
MODEL       81
REMARK  Name = ZINC000100073676
REMARK                            x       y       z     vdW  Elec       q    Type
REMARK                         _______ _______ _______ _____ _____    ______ ____
ROOT
ATOM      1  C   LIG    1       -0.016   1.333   0.009  0.00  0.00    +0.270 C 
ATOM      2  C   LIG    1        0.002  -0.004   0.002  0.00  0.00    -0.100 C 
ENDROOT
BRANCH   2   3
ATOM      3  C   LIG    1       -1.265  -0.759   0.010  0.00  0.00    -0.020 A 
ATOM      4  C   LIG    1       -2.486  -0.080   0.019  0.00  0.00    -0.010 A 
ATOM      5  C   LIG    1       -3.667  -0.793   0.026  0.00  0.00    +0.010 A 
ATOM      6  C   LIG    1       -3.645  -2.176   0.025  0.00  0.00    -0.010 A 
ATOM      7  C   LIG    1       -2.439  -2.855   0.015  0.00  0.00    +0.010 A 
ATOM      8  C   LIG    1       -1.250  -2.156   0.002  0.00  0.00    +0.000 A 
ENDBRANCH   2   3
BRANCH   1   9
ATOM      9  N   LIG    1        1.173   2.041   0.002  0.00  0.00    -0.670 N 
ATOM     10  H   LIG    1        2.019   1.567  -0.009  0.00  0.00    +0.410 HD
BRANCH   9  11
ATOM     11  C   LIG    1        1.154   3.438   0.009  0.00  0.00    +0.180 A 
ATOM     12  C   LIG    1       -0.058   4.117   0.030  0.00  0.00    -0.060 A 
ATOM     13  C   LIG    1       -0.073   5.498   0.038  0.00  0.00    +0.050 A 
ATOM     14  C   LIG    1        1.116   6.205   0.025  0.00  0.00    -0.040 A 
ATOM     15  C   LIG    1        2.324   5.531   0.003  0.00  0.00    +0.050 A 
ATOM     16  C   LIG    1        2.346   4.150   0.002  0.00  0.00    -0.060 A 
ENDBRANCH   9  11
ENDBRANCH   1   9
TORSDOF 3
ENDMDL
MODEL       82
REMARK  Name = ZINC000016945847
REMARK                            x       y       z     vdW  Elec       q    Type
REMARK                         _______ _______ _______ _____ _____    ______ ____
ROOT
ATOM      1  C   LIG    1       -0.018   1.503   0.010  0.00  0.00    +0.090 C 
ATOM      2  C   LIG    1        0.002  -0.004   0.002  0.00  0.00    -0.070 A 
ATOM      3  C   LIG    1        0.006  -0.689  -1.196  0.00  0.00    +0.010 A 
ATOM      4  C   LIG    1        0.025  -2.072  -1.205  0.00  0.00    +0.020 A 
ATOM      5  C   LIG    1        0.039  -2.778  -0.015  0.00  0.00    +0.010 A 
ATOM      6  C   LIG    1        0.036  -2.105   1.190  0.00  0.00    +0.040 A 
ATOM      7  C   LIG    1        0.023  -0.710   1.206  0.00  0.00    -0.030 A 
ENDROOT
BRANCH   7   8
ATOM      8  C   LIG    1        0.019   0.017   2.493  0.00  0.00    -0.140 A 
ATOM      9  C   LIG    1       -0.816  -0.227   3.523  0.00  0.00    +0.010 A 
ATOM     10  C   LIG    1       -0.628   0.584   4.623  0.00  0.00    +0.010 A 
ATOM     11  C   LIG    1        0.351   1.486   4.500  0.00  0.00    -0.050 A 
ATOM     12  S   LIG    1        1.109   1.330   2.921  0.00  0.00    +0.120 S 
ENDBRANCH   7   8
TORSDOF 1
ENDMDL
MODEL       83
REMARK  Name = ZINC000002516841
REMARK                            x       y       z     vdW  Elec       q    Type
REMARK                         _______ _______ _______ _____ _____    ______ ____
ROOT
ATOM      1  C   LIG    1       -0.016   1.346   0.009  0.00  0.00    +0.060 C 
ATOM      2  C   LIG    1        0.002  -0.004   0.002  0.00  0.00    +0.060 C 
ENDROOT
BRANCH   1   3
ATOM      3  C   LIG    1        1.242   2.096   0.002  0.00  0.00    -0.160 A 
ATOM      4  C   LIG    1        1.351   3.456   0.013  0.00  0.00    +0.020 A 
ATOM      5  C   LIG    1        2.647   3.923   0.003  0.00  0.00    +0.010 A 
ATOM      6  C   LIG    1        3.592   2.978  -0.018  0.00  0.00    -0.040 A 
ATOM      7  S   LIG    1        2.850   1.384  -0.017  0.00  0.00    +0.120 S 
ENDBRANCH   1   3
BRANCH   2   8
ATOM      8  C   LIG    1       -1.256  -0.754   0.010  0.00  0.00    -0.160 A 
ATOM      9  C   LIG    1       -1.365  -2.114   0.009  0.00  0.00    +0.020 A 
ATOM     10  C   LIG    1       -2.661  -2.580   0.018  0.00  0.00    +0.010 A 
ATOM     11  C   LIG    1       -3.607  -1.636   0.026  0.00  0.00    -0.040 A 
ATOM     12  S   LIG    1       -2.865  -0.042   0.030  0.00  0.00    +0.120 S 
ENDBRANCH   2   8
TORSDOF 2
ENDMDL
MODEL       84
REMARK  Name = ZINC000017059277
REMARK                            x       y       z     vdW  Elec       q    Type
REMARK                         _______ _______ _______ _____ _____    ______ ____
ROOT
ATOM      1  C   LIG    1        2.420  -1.538  -0.090  0.00  0.00    -0.070 C 
ATOM      2  C   LIG    1        3.430  -2.400  -0.130  0.00  0.00    -0.110 C 
ENDROOT
BRANCH   1   4
ATOM      3  C   LIG    1        1.076  -1.998  -2.056  0.00  0.00    -0.040 C 
ATOM      4  C   LIG    1        1.763  -1.117  -1.337  0.00  0.00    -0.090 C 
BRANCH   3   6
ATOM      5  C   LIG    1       -0.649  -3.679  -1.467  0.00  0.00    +0.010 C 
ATOM      6  C   LIG    1        0.853  -3.391  -1.528  0.00  0.00    +0.040 C 
ENDBRANCH   3   6
BRANCH   4   7
ATOM      7  C   LIG    1        1.869   0.314  -1.798  0.00  0.00    +0.060 C 
ATOM      8  C   LIG    1        0.741   1.137  -1.172  0.00  0.00    +0.020 C 
ENDBRANCH   4   7
ENDBRANCH   1   4
BRANCH   2   9
ATOM      9  C   LIG    1        4.025  -2.924   1.152  0.00  0.00    +0.050 C 
ATOM     10  C   LIG    1        3.375  -4.263   1.506  0.00  0.00    +0.010 C 
ENDBRANCH   2   9
BRANCH   1  11
ATOM     11  C   LIG    1        1.948  -0.992   1.233  0.00  0.00    +0.050 C 
ATOM     12  C   LIG    1        2.684   0.314   1.538  0.00  0.00    +0.030 C 
ENDBRANCH   1  11
BRANCH   2  13
ATOM     13  C   LIG    1        3.982  -2.854  -1.457  0.00  0.00    +0.220 C 
BRANCH  13  14
ATOM     14  O   LIG    1        5.379  -2.560  -1.518  0.00  0.00    -0.570 OA
ATOM     15  H   LIG    1        5.784  -2.756  -2.374  0.00  0.00    +0.380 HD
ENDBRANCH  13  14
ENDBRANCH   2  13
TORSDOF 7
ENDMDL
MODEL       85
REMARK  Name = ZINC000032232215
REMARK                            x       y       z     vdW  Elec       q    Type
REMARK                         _______ _______ _______ _____ _____    ______ ____
ROOT
ATOM      1  C   LIG    1        0.028   1.217  -0.141  0.00  0.00    +0.080 C 
ATOM      2  C   LIG    1       -0.241  -0.072   0.160  0.00  0.00    +0.050 C 
ENDROOT
BRANCH   1   3
ATOM      3  C   LIG    1        1.292   1.568  -0.793  0.00  0.00    -0.180 A 
ATOM      4  C   LIG    1        1.740   2.838  -1.013  0.00  0.00    +0.020 A 
ATOM      5  C   LIG    1        2.962   2.908  -1.646  0.00  0.00    +0.000 A 
ATOM      6  C   LIG    1        3.517   1.729  -1.944  0.00  0.00    -0.080 A 
ATOM      7  S   LIG    1        2.474   0.420  -1.408  0.00  0.00    +0.160 S 
ENDBRANCH   1   3
BRANCH   2   8
ATOM      8  C   LIG    1        0.848  -1.049   0.234  0.00  0.00    -0.180 A 
ATOM      9  C   LIG    1        2.053  -0.844   0.840  0.00  0.00    +0.040 A 
ATOM     10  C   LIG    1        2.912  -1.919   0.776  0.00  0.00    +0.010 A 
ATOM     11  C   LIG    1        2.436  -2.991   0.135  0.00  0.00    -0.040 A 
ATOM     12  S   LIG    1        0.804  -2.675  -0.436  0.00  0.00    +0.120 S 
ENDBRANCH   2   8
TORSDOF 2
ENDMDL
MODEL       86
REMARK  Name = ZINC000104153138
REMARK                            x       y       z     vdW  Elec       q    Type
REMARK                         _______ _______ _______ _____ _____    ______ ____
ROOT
ATOM      1  C   LIG    1       -0.016   1.333   0.009  0.00  0.00    +0.270 C 
ATOM      2  C   LIG    1        0.002  -0.004   0.002  0.00  0.00    -0.100 C 
ENDROOT
BRANCH   2   3
ATOM      3  C   LIG    1       -1.265  -0.759   0.010  0.00  0.00    -0.020 A 
ATOM      4  C   LIG    1       -2.486  -0.080   0.019  0.00  0.00    -0.010 A 
ATOM      5  C   LIG    1       -3.667  -0.793   0.026  0.00  0.00    +0.010 A 
ATOM      6  C   LIG    1       -3.645  -2.176   0.025  0.00  0.00    -0.010 A 
ATOM      7  C   LIG    1       -2.439  -2.855   0.015  0.00  0.00    +0.010 A 
ATOM      8  C   LIG    1       -1.250  -2.156   0.002  0.00  0.00    +0.000 A 
ENDBRANCH   2   3
BRANCH   1   9
ATOM      9  N   LIG    1        1.173   2.041   0.002  0.00  0.00    -0.670 N 
ATOM     10  H   LIG    1        2.019   1.567  -0.009  0.00  0.00    +0.410 HD
BRANCH   9  11
ATOM     11  C   LIG    1        1.154   3.438   0.009  0.00  0.00    +0.180 A 
ATOM     12  C   LIG    1       -0.058   4.117   0.030  0.00  0.00    -0.060 A 
ATOM     13  C   LIG    1       -0.073   5.498   0.038  0.00  0.00    +0.050 A 
ATOM     14  C   LIG    1        1.116   6.205   0.025  0.00  0.00    -0.040 A 
ATOM     15  C   LIG    1        2.324   5.531   0.003  0.00  0.00    +0.050 A 
ATOM     16  C   LIG    1        2.346   4.150   0.002  0.00  0.00    -0.060 A 
ENDBRANCH   9  11
ENDBRANCH   1   9
TORSDOF 3
ENDMDL
MODEL       87
REMARK  Name = ZINC000004817541
REMARK                            x       y       z     vdW  Elec       q    Type
REMARK                         _______ _______ _______ _____ _____    ______ ____
ROOT
ATOM      1  C   LIG    1        0.100   1.451  -0.082  0.00  0.00    +0.100 C 
ATOM      2  C   LIG    1       -0.204  -0.020   0.049  0.00  0.00    -0.090 C 
ATOM      3  C   LIG    1        0.117  -0.674   1.177  0.00  0.00    +0.060 C 
ENDROOT
BRANCH   2   4
ATOM      4  C   LIG    1       -0.853  -0.739  -1.061  0.00  0.00    +0.160 A 
ATOM      5  C   LIG    1       -1.017  -0.107  -2.296  0.00  0.00    -0.020 A 
ATOM      6  C   LIG    1       -1.628  -0.796  -3.327  0.00  0.00    +0.050 A 
ATOM      7  C   LIG    1       -2.056  -2.096  -3.094  0.00  0.00    -0.050 A 
ATOM      8  C   LIG    1       -1.862  -2.663  -1.847  0.00  0.00    +0.250 A 
ATOM      9  N   LIG    1       -1.273  -1.988  -0.882  0.00  0.00    -0.460 NA
ENDBRANCH   2   4
BRANCH   3  10
ATOM     10  C   LIG    1        0.110  -2.148   1.201  0.00  0.00    -0.030 A 
ATOM     11  C   LIG    1        0.696  -2.870   0.158  0.00  0.00    +0.050 A 
ATOM     12  C   LIG    1        0.685  -4.249   0.188  0.00  0.00    -0.020 A 
ATOM     13  C   LIG    1        0.097  -4.917   1.247  0.00  0.00    +0.000 A 
ATOM     14  C   LIG    1       -0.486  -4.208   2.284  0.00  0.00    -0.010 A 
ATOM     15  C   LIG    1       -0.477  -2.829   2.271  0.00  0.00    +0.010 A 
ENDBRANCH   3  10
TORSDOF 2
ENDMDL
MODEL       88
REMARK  Name = ZINC000083260496
REMARK                            x       y       z     vdW  Elec       q    Type
REMARK                         _______ _______ _______ _____ _____    ______ ____
ROOT
ATOM      1  C   LIG    1        0.146   1.504   0.014  0.00  0.00    +0.070 C 
ATOM      2  C   LIG    1        0.019   0.003  -0.003  0.00  0.00    -0.120 C 
ATOM      3  C   LIG    1       -0.138  -0.654   1.120  0.00  0.00    -0.050 C 
ENDROOT
BRANCH   3   4
ATOM      4  C   LIG    1       -0.414  -2.135   1.094  0.00  0.00    +0.010 C 
ATOM      5  C   LIG    1       -1.804  -2.405   1.673  0.00  0.00    +0.020 C 
ATOM      6  C   LIG    1        0.638  -2.865   1.931  0.00  0.00    +0.000 C 
ENDBRANCH   3   4
BRANCH   2   7
ATOM      7  C   LIG    1        0.071  -0.743  -1.311  0.00  0.00    +0.060 C 
BRANCH   7   8
ATOM      8  C   LIG    1       -1.336  -0.832  -1.905  0.00  0.00    -0.020 C 
ATOM      9  C   LIG    1       -1.303  -1.695  -3.168  0.00  0.00    +0.000 C 
ATOM     10  C   LIG    1       -1.829   0.572  -2.259  0.00  0.00    +0.010 C 
ENDBRANCH   7   8
ENDBRANCH   2   7
TORSDOF 3
ENDMDL
MODEL       89
REMARK  Name = ZINC000001672906
REMARK                            x       y       z     vdW  Elec       q    Type
REMARK                         _______ _______ _______ _____ _____    ______ ____
ROOT
ATOM      1  C   LIG    1        0.186   1.352  -0.062  0.00  0.00    +0.100 C 
ATOM      2  C   LIG    1        0.152  -0.148   0.084  0.00  0.00    -0.090 C 
ATOM      3  C   LIG    1       -0.055  -0.700   1.290  0.00  0.00    +0.030 C 
ENDROOT
BRANCH   2   4
ATOM      4  C   LIG    1        0.344  -1.008  -1.097  0.00  0.00    +0.010 A 
ATOM      5  C   LIG    1        1.438  -1.880  -1.183  0.00  0.00    -0.030 A 
ATOM      6  C   LIG    1        1.579  -2.666  -2.307  0.00  0.00    +0.260 A 
ATOM      7  N   LIG    1        0.703  -2.604  -3.291  0.00  0.00    -0.490 NA
ATOM      8  C   LIG    1       -0.341  -1.798  -3.252  0.00  0.00    +0.260 A 
ATOM      9  C   LIG    1       -0.564  -0.981  -2.164  0.00  0.00    -0.040 A 
ENDBRANCH   2   4
BRANCH   3  10
ATOM     10  C   LIG    1       -0.237  -2.158   1.412  0.00  0.00    -0.060 A 
ATOM     11  C   LIG    1        0.204  -2.828   2.556  0.00  0.00    +0.010 A 
ATOM     12  C   LIG    1        0.029  -4.192   2.663  0.00  0.00    +0.000 A 
ATOM     13  C   LIG    1       -0.580  -4.897   1.640  0.00  0.00    +0.000 A 
ATOM     14  C   LIG    1       -1.019  -4.240   0.503  0.00  0.00    +0.000 A 
ATOM     15  C   LIG    1       -0.857  -2.876   0.385  0.00  0.00    +0.020 A 
ENDBRANCH   3  10
TORSDOF 2
ENDMDL
MODEL       90
REMARK  Name = ZINC000002600002
REMARK                            x       y       z     vdW  Elec       q    Type
REMARK                         _______ _______ _______ _____ _____    ______ ____
ROOT
ATOM      1  C   LIG    1        0.002   1.503   0.009  0.00  0.00    +0.070 C 
ATOM      2  C   LIG    1        0.006  -0.004   0.002  0.00  0.00    -0.130 C 
ATOM      3  C   LIG    1        0.121  -0.664   1.128  0.00  0.00    -0.050 C 
ENDROOT
BRANCH   3   4
ATOM      4  C   LIG    1        0.123   0.078   2.439  0.00  0.00    +0.010 C 
ATOM      5  C   LIG    1        1.487  -0.082   3.113  0.00  0.00    +0.010 C 
ATOM      6  C   LIG    1       -0.966  -0.492   3.350  0.00  0.00    +0.020 C 
ENDBRANCH   3   4
BRANCH   2   7
ATOM      7  C   LIG    1       -0.120  -0.751  -1.300  0.00  0.00    +0.060 C 
BRANCH   7   8
ATOM      8  C   LIG    1       -1.600  -0.900  -1.661  0.00  0.00    -0.020 C 
ATOM      9  C   LIG    1       -1.734  -1.765  -2.916  0.00  0.00    +0.010 C 
ATOM     10  C   LIG    1       -2.201   0.481  -1.927  0.00  0.00    +0.010 C 
ENDBRANCH   7   8
ENDBRANCH   2   7
TORSDOF 3
ENDMDL
MODEL       91
REMARK  Name = ZINC000095729183
REMARK                            x       y       z     vdW  Elec       q    Type
REMARK                         _______ _______ _______ _____ _____    ______ ____
ROOT
ATOM      1  C   LIG    1        1.550  -2.512  -2.439  0.00  0.00    -0.120 A 
ATOM      2  C   LIG    1        0.920  -2.838  -3.626  0.00  0.00    +0.010 A 
ATOM      3  C   LIG    1        1.664  -3.283  -4.704  0.00  0.00    +0.000 A 
ATOM      4  C   LIG    1        3.037  -3.401  -4.594  0.00  0.00    +0.000 A 
ATOM      5  C   LIG    1        3.666  -3.075  -3.407  0.00  0.00    +0.010 A 
ATOM      6  C   LIG    1        2.923  -2.626  -2.331  0.00  0.00    -0.070 A 
ENDROOT
BRANCH   6   7
ATOM      7  C   LIG    1        3.609  -2.271  -1.038  0.00  0.00    +0.010 C 
ATOM      8  C   LIG    1        4.616  -1.145  -1.287  0.00  0.00    +0.040 C 
ATOM      9  C   LIG    1        4.342  -3.499  -0.494  0.00  0.00    +0.030 C 
ENDBRANCH   6   7
BRANCH   1  10
ATOM     10  C   LIG    1        0.739  -2.027  -1.265  0.00  0.00    +0.250 C 
BRANCH  10  11
ATOM     11  O   LIG    1       -0.598  -2.521  -1.373  0.00  0.00    -0.550 OA
ATOM     12  H   LIG    1       -1.059  -2.238  -2.174  0.00  0.00    +0.370 HD
ENDBRANCH  10  11
BRANCH  10  13
ATOM     13  C   LIG    1        0.718  -0.497  -1.257  0.00  0.00    -0.010 C 
BRANCH  13  15
ATOM     14  C   LIG    1       -0.019   1.526   0.010  0.00  0.00    +0.010 C 
ATOM     15  C   LIG    1        0.002  -0.004   0.002  0.00  0.00    +0.010 C 
ENDBRANCH  13  15
ENDBRANCH  10  13
ENDBRANCH   1  10
TORSDOF 5
ENDMDL
MODEL       92
REMARK  Name = ZINC000032008601
REMARK                            x       y       z     vdW  Elec       q    Type
REMARK                         _______ _______ _______ _____ _____    ______ ____
ROOT
ATOM      1  C   LIG    1       -2.822  -2.584  -0.109  0.00  0.00    -0.120 A 
ATOM      2  C   LIG    1       -3.634  -2.631   1.009  0.00  0.00    +0.010 A 
ATOM      3  C   LIG    1       -4.927  -3.108   0.905  0.00  0.00    +0.010 A 
ATOM      4  C   LIG    1       -5.408  -3.539  -0.316  0.00  0.00    -0.070 A 
ATOM      5  C   LIG    1       -4.597  -3.492  -1.435  0.00  0.00    +0.010 A 
ATOM      6  C   LIG    1       -3.305  -3.011  -1.332  0.00  0.00    +0.010 A 
ENDROOT
BRANCH   4   7
ATOM      7  C   LIG    1       -6.818  -4.061  -0.429  0.00  0.00    +0.020 C 
ATOM      8  C   LIG    1       -6.788  -5.508  -0.926  0.00  0.00    +0.030 C 
ATOM      9  C   LIG    1       -7.603  -3.198  -1.420  0.00  0.00    +0.040 C 
ENDBRANCH   4   7
BRANCH   1  10
ATOM     10  C   LIG    1       -1.413  -2.063   0.004  0.00  0.00    +0.260 C 
BRANCH  10  11
ATOM     11  O   LIG    1       -0.825  -2.539   1.217  0.00  0.00    -0.550 OA
ATOM     12  H   LIG    1       -1.296  -2.264   2.016  0.00  0.00    +0.370 HD
ENDBRANCH  10  11
BRANCH  10  13
ATOM     13  C   LIG    1       -1.433  -0.534   0.013  0.00  0.00    -0.010 C 
BRANCH  13  15
ATOM     14  C   LIG    1       -0.019   1.526   0.010  0.00  0.00    +0.010 C 
ATOM     15  C   LIG    1        0.002  -0.004   0.002  0.00  0.00    +0.010 C 
ENDBRANCH  13  15
ENDBRANCH  10  13
ENDBRANCH   1  10
TORSDOF 5
ENDMDL
MODEL       93
REMARK  Name = ZINC000095729191
REMARK                            x       y       z     vdW  Elec       q    Type
REMARK                         _______ _______ _______ _____ _____    ______ ____
ROOT
ATOM      1  C   LIG    1        1.550  -2.512  -2.439  0.00  0.00    -0.110 A 
ATOM      2  C   LIG    1        0.988  -2.542  -3.702  0.00  0.00    +0.000 A 
ATOM      3  C   LIG    1        1.731  -2.987  -4.779  0.00  0.00    +0.010 A 
ATOM      4  C   LIG    1        3.037  -3.401  -4.594  0.00  0.00    +0.000 A 
ATOM      5  C   LIG    1        3.599  -3.371  -3.331  0.00  0.00    -0.070 A 
ATOM      6  C   LIG    1        2.857  -2.922  -2.255  0.00  0.00    +0.010 A 
ENDROOT
BRANCH   5   7
ATOM      7  C   LIG    1        5.022  -3.823  -3.129  0.00  0.00    +0.020 C 
ATOM      8  C   LIG    1        5.958  -2.954  -3.972  0.00  0.00    +0.040 C 
ATOM      9  C   LIG    1        5.159  -5.285  -3.559  0.00  0.00    +0.030 C 
ENDBRANCH   5   7
BRANCH   1  10
ATOM     10  C   LIG    1        0.739  -2.027  -1.265  0.00  0.00    +0.260 C 
BRANCH  10  11
ATOM     11  O   LIG    1       -0.598  -2.521  -1.373  0.00  0.00    -0.550 OA
ATOM     12  H   LIG    1       -1.059  -2.238  -2.174  0.00  0.00    +0.370 HD
ENDBRANCH  10  11
BRANCH  10  13
ATOM     13  C   LIG    1        0.718  -0.497  -1.257  0.00  0.00    -0.010 C 
BRANCH  13  15
ATOM     14  C   LIG    1       -0.019   1.526   0.010  0.00  0.00    +0.010 C 
ATOM     15  C   LIG    1        0.002  -0.004   0.002  0.00  0.00    +0.010 C 
ENDBRANCH  13  15
ENDBRANCH  10  13
ENDBRANCH   1  10
TORSDOF 5
ENDMDL
MODEL       94
REMARK  Name = ZINC000013282674
REMARK                            x       y       z     vdW  Elec       q    Type
REMARK                         _______ _______ _______ _____ _____    ______ ____
ROOT
ATOM      1  C   LIG    1       -0.809   1.345   0.095  0.00  0.00    +0.100 C 
ATOM      2  C   LIG    1       -0.242  -0.050   0.028  0.00  0.00    -0.090 C 
ATOM      3  C   LIG    1        0.124  -0.680   1.156  0.00  0.00    +0.070 C 
ENDROOT
BRANCH   2   4
ATOM      4  C   LIG    1       -0.091  -0.721  -1.274  0.00  0.00    +0.170 A 
ATOM      5  C   LIG    1       -0.468  -0.058  -2.445  0.00  0.00    -0.020 A 
ATOM      6  C   LIG    1       -0.318  -0.703  -3.659  0.00  0.00    +0.070 A 
ATOM      7  C   LIG    1        0.203  -1.990  -3.668  0.00  0.00    -0.040 A 
ATOM      8  C   LIG    1        0.556  -2.588  -2.471  0.00  0.00    +0.270 A 
ATOM      9  N   LIG    1        0.409  -1.952  -1.327  0.00  0.00    -0.480 NA
ENDBRANCH   2   4
BRANCH   3  10
ATOM     10  C   LIG    1        0.126   0.045   2.438  0.00  0.00    -0.060 A 
ATOM     11  C   LIG    1       -0.262  -0.604   3.614  0.00  0.00    +0.020 A 
ATOM     12  C   LIG    1       -0.257   0.082   4.810  0.00  0.00    +0.000 A 
ATOM     13  C   LIG    1        0.131   1.409   4.849  0.00  0.00    +0.000 A 
ATOM     14  C   LIG    1        0.516   2.059   3.690  0.00  0.00    +0.000 A 
ATOM     15  C   LIG    1        0.522   1.385   2.487  0.00  0.00    +0.020 A 
ENDBRANCH   3  10
TORSDOF 2
ENDMDL
MODEL       95
REMARK  Name = ZINC000008581372
REMARK                            x       y       z     vdW  Elec       q    Type
REMARK                         _______ _______ _______ _____ _____    ______ ____
ROOT
ATOM      1  C   LIG    1       -0.669   1.391   0.070  0.00  0.00    +0.090 C 
ATOM      2  C   LIG    1       -0.179  -0.033   0.019  0.00  0.00    -0.090 C 
ATOM      3  C   LIG    1        0.124  -0.680   1.156  0.00  0.00    +0.020 C 
ENDROOT
BRANCH   2   4
ATOM      4  C   LIG    1       -0.033  -0.716  -1.279  0.00  0.00    +0.000 A 
ATOM      5  C   LIG    1        1.227  -1.118  -1.744  0.00  0.00    -0.020 A 
ATOM      6  C   LIG    1        1.316  -1.754  -2.964  0.00  0.00    +0.260 A 
ATOM      7  N   LIG    1        0.238  -1.984  -3.690  0.00  0.00    -0.490 NA
ATOM      8  C   LIG    1       -0.966  -1.622  -3.290  0.00  0.00    +0.260 A 
ATOM      9  C   LIG    1       -1.151  -0.987  -2.081  0.00  0.00    -0.020 A 
ENDBRANCH   2   4
BRANCH   3  10
ATOM     10  C   LIG    1        0.126   0.046   2.438  0.00  0.00    -0.060 A 
ATOM     11  C   LIG    1       -0.262  -0.604   3.613  0.00  0.00    +0.010 A 
ATOM     12  C   LIG    1       -0.257   0.082   4.810  0.00  0.00    +0.000 A 
ATOM     13  C   LIG    1        0.130   1.410   4.849  0.00  0.00    +0.000 A 
ATOM     14  C   LIG    1        0.516   2.059   3.690  0.00  0.00    +0.000 A 
ATOM     15  C   LIG    1        0.522   1.385   2.487  0.00  0.00    +0.020 A 
ENDBRANCH   3  10
TORSDOF 2
ENDMDL
MODEL       96
REMARK  Name = ZINC000002545201
REMARK                            x       y       z     vdW  Elec       q    Type
REMARK                         _______ _______ _______ _____ _____    ______ ____
ROOT
ATOM      1  C   LIG    1       -1.413  -2.063   0.004  0.00  0.00    -0.010 C 
ATOM      2  C   LIG    1       -0.809  -2.558  -1.311  0.00  0.00    +0.000 C 
ATOM      3  C   LIG    1       -0.788  -4.088  -1.320  0.00  0.00    +0.000 C 
ATOM      4  C   LIG    1       -2.216  -4.618  -1.183  0.00  0.00    +0.000 C 
ATOM      5  C   LIG    1       -2.821  -4.123   0.133  0.00  0.00    +0.000 C 
ATOM      6  C   LIG    1       -2.841  -2.594   0.141  0.00  0.00    -0.020 C 
ATOM      7  C   LIG    1       -3.687  -2.089  -1.030  0.00  0.00    +0.020 C 
ENDROOT
BRANCH   1   8
ATOM      8  C   LIG    1       -1.433  -0.534   0.013  0.00  0.00    +0.000 C 
BRANCH   8  10
ATOM      9  C   LIG    1       -0.019   1.526   0.010  0.00  0.00    +0.000 C 
ATOM     10  C   LIG    1        0.002  -0.004   0.002  0.00  0.00    -0.010 C 
ENDBRANCH   8  10
ENDBRANCH   1   8
TORSDOF 2
ENDMDL
MODEL       97
REMARK  Name = ZINC000002545202
REMARK                            x       y       z     vdW  Elec       q    Type
REMARK                         _______ _______ _______ _____ _____    ______ ____
ROOT
ATOM      1  C   LIG    1       -1.413  -2.063   0.004  0.00  0.00    -0.010 C 
ATOM      2  C   LIG    1       -0.809  -2.558  -1.311  0.00  0.00    +0.000 C 
ATOM      3  C   LIG    1       -0.788  -4.088  -1.320  0.00  0.00    +0.000 C 
ATOM      4  C   LIG    1       -2.216  -4.618  -1.183  0.00  0.00    +0.000 C 
ATOM      5  C   LIG    1       -2.821  -4.123   0.133  0.00  0.00    +0.000 C 
ATOM      6  C   LIG    1       -2.841  -2.594   0.141  0.00  0.00    -0.020 C 
ATOM      7  C   LIG    1       -3.445  -2.099   1.457  0.00  0.00    +0.010 C 
ENDROOT
BRANCH   1   8
ATOM      8  C   LIG    1       -1.433  -0.534   0.013  0.00  0.00    +0.010 C 
BRANCH   8  10
ATOM      9  C   LIG    1       -0.019   1.526   0.010  0.00  0.00    +0.000 C 
ATOM     10  C   LIG    1        0.002  -0.004   0.002  0.00  0.00    -0.010 C 
ENDBRANCH   8  10
ENDBRANCH   1   8
TORSDOF 2
ENDMDL
MODEL       98
REMARK  Name = ZINC000034500507
REMARK                            x       y       z     vdW  Elec       q    Type
REMARK                         _______ _______ _______ _____ _____    ______ ____
ROOT
ATOM      1  C   LIG    1        0.002  -0.004   0.002  0.00  0.00    -0.100 A 
ATOM      2  C   LIG    1        0.006  -0.693  -1.206  0.00  0.00    +0.070 A 
ATOM      3  C   LIG    1        0.025  -2.075  -1.217  0.00  0.00    +0.010 A 
ATOM      4  C   LIG    1        0.040  -2.779  -0.029  0.00  0.00    +0.040 A 
ATOM      5  C   LIG    1        0.036  -2.096   1.187  0.00  0.00    -0.050 A 
ATOM      6  C   LIG    1        0.023  -0.705   1.200  0.00  0.00    +0.080 A 
ENDROOT
BRANCH   5   7
ATOM      7  C   LIG    1        0.052  -2.852   2.464  0.00  0.00    -0.050 A 
ATOM      8  C   LIG    1        0.042  -2.171   3.679  0.00  0.00    +0.020 A 
ATOM      9  C   LIG    1        0.057  -2.879   4.864  0.00  0.00    +0.010 A 
ATOM     10  C   LIG    1        0.081  -4.262   4.846  0.00  0.00    +0.000 A 
ATOM     11  C   LIG    1        0.090  -4.943   3.642  0.00  0.00    +0.010 A 
ATOM     12  C   LIG    1        0.070  -4.245   2.452  0.00  0.00    +0.020 A 
ENDBRANCH   5   7
BRANCH   1  13
ATOM     13  S   LIG    1       -0.022   1.758   0.012  0.00  0.00    -0.130 S 
ATOM     14  H   LIG    1        1.284   2.078   0.001  0.00  0.00    +0.080 HD
ENDBRANCH   1  13
TORSDOF 2
ENDMDL
MODEL       99
REMARK  Name = ZINC000005004315
REMARK                            x       y       z     vdW  Elec       q    Type
REMARK                         _______ _______ _______ _____ _____    ______ ____
ROOT
ATOM      1  S   LIG    1       -3.335  -0.267  -1.518  0.00  0.00    -0.100 S 
ENDROOT
BRANCH   1   2
ATOM      2  C   LIG    1       -4.820   0.660  -1.319  0.00  0.00    -0.090 A 
ATOM      3  C   LIG    1       -5.030   1.400  -0.161  0.00  0.00    -0.020 A 
ATOM      4  C   LIG    1       -6.195   2.125  -0.008  0.00  0.00    +0.030 A 
ATOM      5  C   LIG    1       -7.153   2.116  -1.006  0.00  0.00    +0.010 A 
ATOM      6  C   LIG    1       -6.948   1.380  -2.159  0.00  0.00    +0.030 A 
ATOM      7  C   LIG    1       -5.783   0.658  -2.321  0.00  0.00    +0.030 A 
ENDBRANCH   1   2
BRANCH   1   8
ATOM      8  C   LIG    1       -2.440   0.060   0.026  0.00  0.00    +0.120 C 
BRANCH   8  11
ATOM      9  C   LIG    1       -0.018   1.503   0.010  0.00  0.00    +0.110 C 
ATOM     10  C   LIG    1        0.002  -0.004   0.002  0.00  0.00    -0.050 C 
ATOM     11  C   LIG    1       -1.125  -0.675   0.009  0.00  0.00    -0.010 C 
ATOM     12 CL   LIG    1        1.517  -0.852  -0.017  0.00  0.00    -0.070 Cl
ENDBRANCH   8  11
ENDBRANCH   1   8
TORSDOF 3
ENDMDL
MODEL      100
REMARK  Name = ZINC000017021289
REMARK                            x       y       z     vdW  Elec       q    Type
REMARK                         _______ _______ _______ _____ _____    ______ ____
ROOT
ATOM      1  S   LIG    1       -1.804  -2.805   1.554  0.00  0.00    -0.100 S 
ENDROOT
BRANCH   1   2
ATOM      2  C   LIG    1       -1.698  -4.553   1.364  0.00  0.00    -0.080 A 
ATOM      3  C   LIG    1       -1.158  -5.096   0.204  0.00  0.00    -0.010 A 
ATOM      4  C   LIG    1       -1.077  -6.467   0.058  0.00  0.00    +0.030 A 
ATOM      5  C   LIG    1       -1.532  -7.299   1.065  0.00  0.00    +0.010 A 
ATOM      6  C   LIG    1       -2.070  -6.763   2.220  0.00  0.00    +0.030 A 
ATOM      7  C   LIG    1       -2.149  -5.393   2.376  0.00  0.00    +0.030 A 
ENDBRANCH   1   2
BRANCH   1   8
ATOM      8  C   LIG    1       -1.104  -2.182   0.001  0.00  0.00    +0.110 C 
BRANCH   8  11
ATOM      9  C   LIG    1       -0.018   1.503   0.010  0.00  0.00    +0.120 C 
ATOM     10  C   LIG    1        0.002  -0.004   0.002  0.00  0.00    -0.050 C 
ATOM     11  C   LIG    1       -1.125  -0.675   0.009  0.00  0.00    +0.010 C 
ATOM     12 CL   LIG    1        1.517  -0.852  -0.017  0.00  0.00    -0.080 Cl
ENDBRANCH   8  11
ENDBRANCH   1   8
TORSDOF 3
ENDMDL
MODEL      101
REMARK  Name = ZINC000001569111
REMARK                            x       y       z     vdW  Elec       q    Type
REMARK                         _______ _______ _______ _____ _____    ______ ____
ROOT
ATOM      1  C   LIG    1        0.608  -2.163   0.967  0.00  0.00    +0.060 C 
ENDROOT
BRANCH   1   4
ATOM      2  C   LIG    1       -0.018   1.503   0.010  0.00  0.00    +0.060 C 
ATOM      3  C   LIG    1        0.002  -0.004   0.002  0.00  0.00    -0.060 C 
ATOM      4  C   LIG    1        0.588  -0.657   0.976  0.00  0.00    -0.130 C 
ATOM      5  C   LIG    1        1.240   0.100   2.104  0.00  0.00    +0.070 C 
ENDBRANCH   1   4
BRANCH   1   6
ATOM      6  C   LIG    1        1.916  -2.652   0.342  0.00  0.00    +0.050 C 
BRANCH   6   7
ATOM      7  C   LIG    1        1.937  -4.159   0.334  0.00  0.00    -0.060 C 
ATOM      8  C   LIG    1        2.132  -4.805  -0.788  0.00  0.00    -0.130 C 
ATOM      9  C   LIG    1        2.152  -6.312  -0.797  0.00  0.00    +0.070 C 
ATOM     10  C   LIG    1        2.336  -4.042  -2.072  0.00  0.00    +0.080 C 
ENDBRANCH   6   7
ENDBRANCH   1   6
TORSDOF 3
ENDMDL
MODEL      102
REMARK  Name = ZINC000067794441
REMARK                            x       y       z     vdW  Elec       q    Type
REMARK                         _______ _______ _______ _____ _____    ______ ____
ROOT
ATOM      1  F   LIG    1        0.002  -0.004   0.002  0.00  0.00    -0.110 F 
ATOM      2  C   LIG    1       -0.016   1.347   0.009  0.00  0.00    +0.140 A 
ATOM      3  C   LIG    1       -1.224   2.023   0.030  0.00  0.00    +0.030 A 
ATOM      4  C   LIG    1       -1.242   3.406   0.038  0.00  0.00    +0.000 A 
ATOM      5  C   LIG    1       -0.054   4.114   0.026  0.00  0.00    +0.060 A 
ATOM      6  C   LIG    1        1.154   3.440   0.004  0.00  0.00    +0.000 A 
ATOM      7 CL   LIG    1        2.644   4.330  -0.012  0.00  0.00    -0.020 Cl
ATOM      8 CL   LIG    1       -2.757   4.253   0.065  0.00  0.00    -0.030 Cl
ATOM      9  C   LIG    1        1.174   2.056   0.002  0.00  0.00    -0.070 A 
ATOM     10 CL   LIG    1        2.689   1.210  -0.025  0.00  0.00    -0.010 Cl
ENDROOT
TORSDOF 0
ENDMDL
MODEL      103
REMARK  Name = ZINC000083333238
REMARK                            x       y       z     vdW  Elec       q    Type
REMARK                         _______ _______ _______ _____ _____    ______ ____
ROOT
ATOM      1  C   LIG    1        2.053  -2.654   1.077  0.00  0.00    +0.030 C 
ATOM      2  C   LIG    1        2.831  -2.232  -0.172  0.00  0.00    +0.030 C 
ENDROOT
BRANCH   1   3
ATOM      3  C   LIG    1        2.065  -4.157   1.192  0.00  0.00    -0.080 A 
ATOM      4  C   LIG    1        1.530  -4.932   0.180  0.00  0.00    +0.000 A 
ATOM      5  C   LIG    1        1.541  -6.311   0.286  0.00  0.00    +0.000 A 
ATOM      6  C   LIG    1        2.089  -6.913   1.403  0.00  0.00    -0.010 A 
ATOM      7  C   LIG    1        2.625  -6.138   2.414  0.00  0.00    +0.000 A 
ATOM      8  C   LIG    1        2.618  -4.760   2.306  0.00  0.00    +0.000 A 
ENDBRANCH   1   3
BRANCH   1   9
ATOM      9  C   LIG    1        0.608  -2.163   0.967  0.00  0.00    +0.060 C 
BRANCH   9  12
ATOM     10  C   LIG    1       -0.018   1.503   0.010  0.00  0.00    +0.050 C 
ATOM     11  C   LIG    1        0.002  -0.004   0.002  0.00  0.00    -0.050 C 
ATOM     12  C   LIG    1        0.588  -0.657   0.976  0.00  0.00    -0.050 C 
ENDBRANCH   9  12
ENDBRANCH   1   9
TORSDOF 3
ENDMDL
MODEL      104
REMARK  Name = ZINC000002600009
REMARK                            x       y       z     vdW  Elec       q    Type
REMARK                         _______ _______ _______ _____ _____    ______ ____
ROOT
ATOM      1  C   LIG    1        2.053  -2.654   1.077  0.00  0.00    +0.030 C 
ATOM      2  C   LIG    1        2.628  -2.249   2.435  0.00  0.00    +0.030 C 
ENDROOT
BRANCH   1   3
ATOM      3  C   LIG    1        2.085  -4.155   0.945  0.00  0.00    -0.080 A 
ATOM      4  C   LIG    1        1.390  -4.943   1.844  0.00  0.00    +0.000 A 
ATOM      5  C   LIG    1        1.420  -6.320   1.724  0.00  0.00    +0.000 A 
ATOM      6  C   LIG    1        2.143  -6.909   0.703  0.00  0.00    -0.010 A 
ATOM      7  C   LIG    1        2.836  -6.121  -0.197  0.00  0.00    +0.000 A 
ATOM      8  C   LIG    1        2.803  -4.744  -0.079  0.00  0.00    +0.000 A 
ENDBRANCH   1   3
BRANCH   1   9
ATOM      9  C   LIG    1        0.608  -2.163   0.967  0.00  0.00    +0.060 C 
BRANCH   9  12
ATOM     10  C   LIG    1       -0.018   1.503   0.010  0.00  0.00    +0.050 C 
ATOM     11  C   LIG    1        0.002  -0.004   0.002  0.00  0.00    -0.050 C 
ATOM     12  C   LIG    1        0.588  -0.657   0.976  0.00  0.00    -0.050 C 
ENDBRANCH   9  12
ENDBRANCH   1   9
TORSDOF 3
ENDMDL
MODEL      105
REMARK  Name = ZINC000078745942
REMARK                            x       y       z     vdW  Elec       q    Type
REMARK                         _______ _______ _______ _____ _____    ______ ____
ROOT
ATOM      1  C   LIG    1        1.343  -2.522  -2.581  0.00  0.00    +0.060 C 
ENDROOT
BRANCH   1   2
ATOM      2  C   LIG    1        1.251  -4.025  -2.642  0.00  0.00    -0.080 A 
ATOM      3  C   LIG    1        2.279  -4.801  -2.140  0.00  0.00    +0.000 A 
ATOM      4  C   LIG    1        2.195  -6.180  -2.196  0.00  0.00    +0.000 A 
ATOM      5  C   LIG    1        1.083  -6.782  -2.754  0.00  0.00    -0.010 A 
ATOM      6  C   LIG    1        0.055  -6.006  -3.255  0.00  0.00    +0.000 A 
ATOM      7  C   LIG    1        0.137  -4.628  -3.195  0.00  0.00    +0.000 A 
ENDBRANCH   1   2
BRANCH   1   8
ATOM      8  C   LIG    1        0.739  -2.027  -1.265  0.00  0.00    -0.020 C 
ATOM      9  C   LIG    1        1.584  -2.532  -0.094  0.00  0.00    +0.020 C 
BRANCH   8  10
ATOM     10  C   LIG    1        0.718  -0.497  -1.257  0.00  0.00    +0.000 C 
BRANCH  10  12
ATOM     11  C   LIG    1       -0.019   1.526   0.010  0.00  0.00    +0.000 C 
ATOM     12  C   LIG    1        0.002  -0.004   0.002  0.00  0.00    -0.010 C 
ENDBRANCH  10  12
ENDBRANCH   8  10
ENDBRANCH   1   8
TORSDOF 4
ENDMDL
MODEL      106
REMARK  Name = ZINC000001704048
REMARK                            x       y       z     vdW  Elec       q    Type
REMARK                         _______ _______ _______ _____ _____    ______ ____
ROOT
ATOM      1  C   LIG    1       -1.117  -2.160   0.001  0.00  0.00    -0.050 A 
ATOM      2  C   LIG    1        0.113  -2.841  -0.009  0.00  0.00    +0.020 A 
ATOM      3  C   LIG    1        0.157  -4.198  -0.016  0.00  0.00    +0.030 A 
ATOM      4  C   LIG    1       -1.037  -4.941  -0.014  0.00  0.00    -0.050 A 
ATOM      5  C   LIG    1       -1.016  -6.346  -0.021  0.00  0.00    +0.020 A 
ATOM      6  C   LIG    1       -2.188  -7.038  -0.019  0.00  0.00    +0.000 A 
ATOM      7  C   LIG    1       -3.414  -6.375  -0.010  0.00  0.00    +0.000 A 
ATOM      8  C   LIG    1       -3.474  -5.015  -0.004  0.00  0.00    +0.020 A 
ATOM      9  C   LIG    1       -2.284  -4.266  -0.005  0.00  0.00    -0.050 A 
ATOM     10  C   LIG    1       -2.310  -2.863   0.009  0.00  0.00    +0.030 A 
ENDROOT
BRANCH   1  13
ATOM     11  C   LIG    1       -0.018   1.503   0.010  0.00  0.00    +0.070 C 
ATOM     12  C   LIG    1        0.002  -0.004   0.002  0.00  0.00    -0.030 C 
ATOM     13  C   LIG    1       -1.137  -0.683   0.009  0.00  0.00    -0.010 C 
ENDBRANCH   1  13
TORSDOF 1
ENDMDL
MODEL      107
REMARK  Name = ZINC000006361237
REMARK                            x       y       z     vdW  Elec       q    Type
REMARK                         _______ _______ _______ _____ _____    ______ ____
ROOT
ATOM      1  N   LIG    1        0.623  -2.055   0.966  0.00  0.00    -0.390 N 
ATOM      2  C   LIG    1       -0.011  -2.856   0.059  0.00  0.00    +0.160 A 
ATOM      3  C   LIG    1        0.223  -4.145   0.390  0.00  0.00    -0.050 A 
ATOM      4  C   LIG    1        1.029  -4.152   1.540  0.00  0.00    -0.030 A 
ATOM      5  C   LIG    1        1.270  -2.854   1.877  0.00  0.00    +0.050 A 
ENDROOT
BRANCH   5   6
ATOM      6  C   LIG    1        2.075  -2.388   3.026  0.00  0.00    -0.020 A 
ATOM      7  C   LIG    1        2.253  -3.212   4.138  0.00  0.00    +0.030 A 
ATOM      8  C   LIG    1        3.007  -2.771   5.206  0.00  0.00    +0.020 A 
ATOM      9  C   LIG    1        3.585  -1.514   5.176  0.00  0.00    +0.000 A 
ATOM     10  C   LIG    1        3.412  -0.692   4.077  0.00  0.00    +0.020 A 
ATOM     11  C   LIG    1        2.666  -1.123   3.000  0.00  0.00    -0.010 A 
ENDBRANCH   5   6
BRANCH   1  14
ATOM     12  C   LIG    1        0.241   1.502  -0.121  0.00  0.00    +0.090 C 
ATOM     13  C   LIG    1        0.245  -0.004  -0.118  0.00  0.00    -0.060 C 
ATOM     14  C   LIG    1        0.619  -0.661   0.963  0.00  0.00    +0.200 C 
ENDBRANCH   1  14
TORSDOF 2
ENDMDL
MODEL      108
REMARK  Name = ZINC000081214015
REMARK                            x       y       z     vdW  Elec       q    Type
REMARK                         _______ _______ _______ _____ _____    ______ ____
ROOT
ATOM      1  C   LIG    1       -2.423   0.040  -0.075  0.00  0.00    -0.050 A 
ATOM      2  C   LIG    1       -2.443   1.429  -0.285  0.00  0.00    +0.020 A 
ATOM      3  C   LIG    1       -3.613   2.119  -0.275  0.00  0.00    +0.020 A 
ATOM      4  C   LIG    1       -4.826   1.442  -0.053  0.00  0.00    -0.050 A 
ATOM      5  C   LIG    1       -6.049   2.134  -0.038  0.00  0.00    +0.020 A 
ATOM      6  C   LIG    1       -7.207   1.452   0.179  0.00  0.00    +0.000 A 
ATOM      7  C   LIG    1       -7.200   0.074   0.389  0.00  0.00    +0.000 A 
ATOM      8  C   LIG    1       -6.035  -0.630   0.383  0.00  0.00    +0.020 A 
ATOM      9  C   LIG    1       -4.819   0.040   0.161  0.00  0.00    -0.050 A 
ATOM     10  C   LIG    1       -3.601  -0.655   0.141  0.00  0.00    +0.040 A 
ENDROOT
BRANCH   1  13
ATOM     11  C   LIG    1       -2.289  -2.522  -1.243  0.00  0.00    +0.060 C 
ATOM     12  C   LIG    1       -1.057  -1.884  -0.653  0.00  0.00    -0.020 C 
ATOM     13  C   LIG    1       -1.136  -0.686  -0.091  0.00  0.00    -0.010 C 
ENDBRANCH   1  13
TORSDOF 1
ENDMDL
MODEL      109
REMARK  Name = ZINC000002244225
REMARK                            x       y       z     vdW  Elec       q    Type
REMARK                         _______ _______ _______ _____ _____    ______ ____
ROOT
ATOM      1  C   LIG    1       -0.709   1.875   3.767  0.00  0.00    +0.080 C 
ENDROOT
BRANCH   1   2
ATOM      2  C   LIG    1        0.020   1.376   4.988  0.00  0.00    -0.090 A 
ATOM      3  C   LIG    1       -0.320   0.157   5.545  0.00  0.00    +0.000 A 
ATOM      4  C   LIG    1        0.348  -0.301   6.665  0.00  0.00    +0.000 A 
ATOM      5  C   LIG    1        1.357   0.460   7.227  0.00  0.00    +0.000 A 
ATOM      6  C   LIG    1        1.698   1.677   6.669  0.00  0.00    +0.000 A 
ATOM      7  C   LIG    1        1.032   2.133   5.546  0.00  0.00    +0.000 A 
ENDBRANCH   1   2
BRANCH   1   8
ATOM      8  C   LIG    1        0.007   1.381   2.508  0.00  0.00    +0.040 C 
BRANCH   8   9
ATOM      9  C   LIG    1       -0.733   1.888   1.268  0.00  0.00    +0.050 C 
BRANCH   9  11
ATOM     10  F   LIG    1        0.002  -0.004   0.002  0.00  0.00    -0.180 F 
ATOM     11  C   LIG    1       -0.017   1.395   0.010  0.00  0.00    +0.450 C 
ATOM     12  F   LIG    1       -0.694   1.858  -1.124  0.00  0.00    -0.190 F 
ATOM     13  F   LIG    1        1.296   1.879  -0.000  0.00  0.00    -0.180 F 
ENDBRANCH   9  11
ENDBRANCH   8   9
ENDBRANCH   1   8
TORSDOF 4
ENDMDL
MODEL      110
REMARK  Name = ZINC000071789891
REMARK                            x       y       z     vdW  Elec       q    Type
REMARK                         _______ _______ _______ _____ _____    ______ ____
ROOT
ATOM      1  C   LIG    1        0.739  -2.027  -1.265  0.00  0.00    -0.020 C 
ATOM      2  C   LIG    1        1.584  -2.532  -0.094  0.00  0.00    +0.020 C 
ENDROOT
BRANCH   1   3
ATOM      3  C   LIG    1        1.343  -2.522  -2.581  0.00  0.00    -0.020 C 
ATOM      4  C   LIG    1        1.364  -4.052  -2.590  0.00  0.00    +0.020 C 
BRANCH   3   5
ATOM      5  C   LIG    1        0.497  -2.017  -3.752  0.00  0.00    +0.010 C 
BRANCH   5   6
ATOM      6  C   LIG    1        1.169  -2.405  -5.071  0.00  0.00    -0.010 C 
ATOM      7  C   LIG    1        0.324  -1.900  -6.242  0.00  0.00    +0.000 C 
ENDBRANCH   5   6
ENDBRANCH   3   5
ENDBRANCH   1   3
BRANCH   1   8
ATOM      8  C   LIG    1        0.718  -0.497  -1.257  0.00  0.00    +0.010 C 
BRANCH   8  10
ATOM      9  C   LIG    1       -0.019   1.526   0.010  0.00  0.00    +0.000 C 
ATOM     10  C   LIG    1        0.002  -0.004   0.002  0.00  0.00    -0.010 C 
ENDBRANCH   8  10
ENDBRANCH   1   8
TORSDOF 5
ENDMDL
MODEL      111
REMARK  Name = ZINC000059191216
REMARK                            x       y       z     vdW  Elec       q    Type
REMARK                         _______ _______ _______ _____ _____    ______ ____
ROOT
ATOM      1  C   LIG    1       -0.018   1.497   0.010  0.00  0.00    -0.040 C 
ATOM      2  C   LIG    1        1.064   2.243   0.004  0.00  0.00    -0.090 C 
ATOM      3  C   LIG    1        2.459   1.690  -0.021  0.00  0.00    +0.060 C 
ATOM      4  C   LIG    1        2.449   0.215   0.386  0.00  0.00    +0.010 C 
ATOM      5  C   LIG    1        1.378  -0.510  -0.438  0.00  0.00    +0.010 C 
ATOM      6  C   LIG    1        0.002  -0.004   0.002  0.00  0.00    +0.050 C 
ENDROOT
BRANCH   2   7
ATOM      7  C   LIG    1        0.897   3.704   0.023  0.00  0.00    -0.090 C 
ATOM      8  C   LIG    1        1.979   4.450   0.011  0.00  0.00    -0.040 C 
ATOM      9  C   LIG    1        1.959   5.951   0.037  0.00  0.00    +0.050 C 
ATOM     10  C   LIG    1        0.571   6.466  -0.347  0.00  0.00    +0.010 C 
ATOM     11  C   LIG    1       -0.474   5.722   0.493  0.00  0.00    +0.010 C 
ATOM     12  C   LIG    1       -0.498   4.257   0.049  0.00  0.00    +0.060 C 
ENDBRANCH   2   7
TORSDOF 1
ENDMDL
MODEL      112
REMARK  Name = ZINC000034206891
REMARK                            x       y       z     vdW  Elec       q    Type
REMARK                         _______ _______ _______ _____ _____    ______ ____
ROOT
ATOM      1  C   LIG    1        1.334  -2.514  -2.561  0.00  0.00    -0.110 A 
ATOM      2  C   LIG    1        2.628  -2.165  -2.901  0.00  0.00    +0.060 A 
ATOM      3  C   LIG    1        3.175  -2.610  -4.089  0.00  0.00    -0.020 A 
ATOM      4  C   LIG    1        2.426  -3.409  -4.940  0.00  0.00    +0.120 A 
ATOM      5  C   LIG    1        1.128  -3.759  -4.597  0.00  0.00    -0.080 A 
ATOM      6  C   LIG    1        0.587  -3.315  -3.406  0.00  0.00    +0.040 A 
ENDROOT
BRANCH   1   7
ATOM      7  C   LIG    1        0.739  -2.027  -1.265  0.00  0.00    +0.030 C 
ATOM      8  C   LIG    1        1.584  -2.532  -0.094  0.00  0.00    +0.020 C 
BRANCH   7   9
ATOM      9  C   LIG    1        0.718  -0.497  -1.257  0.00  0.00    +0.010 C 
BRANCH   9  11
ATOM     10  C   LIG    1       -0.019   1.526   0.010  0.00  0.00    +0.000 C 
ATOM     11  C   LIG    1        0.002  -0.004   0.002  0.00  0.00    -0.010 C 
ENDBRANCH   9  11
ENDBRANCH   7   9
ENDBRANCH   1   7
BRANCH   4  12
ATOM     12  O   LIG    1        2.963  -3.849  -6.109  0.00  0.00    -0.320 OA
ATOM     13  C   LIG    1        2.134  -4.668  -6.936  0.00  0.00    +0.250 C 
ENDBRANCH   4  12
TORSDOF 4
ENDMDL
MODEL      113
REMARK  Name = ZINC000071789890
REMARK                            x       y       z     vdW  Elec       q    Type
REMARK                         _______ _______ _______ _____ _____    ______ ____
ROOT
ATOM      1  C   LIG    1        0.739  -2.027  -1.265  0.00  0.00    -0.020 C 
ATOM      2  C   LIG    1       -0.692  -2.556  -1.380  0.00  0.00    +0.020 C 
ENDROOT
BRANCH   1   3
ATOM      3  C   LIG    1        1.562  -2.520  -2.457  0.00  0.00    -0.020 C 
ATOM      4  C   LIG    1        2.993  -1.991  -2.342  0.00  0.00    +0.020 C 
BRANCH   3   5
ATOM      5  C   LIG    1        1.583  -4.050  -2.466  0.00  0.00    +0.010 C 
BRANCH   5   6
ATOM      6  C   LIG    1        2.299  -4.543  -3.725  0.00  0.00    -0.010 C 
ATOM      7  C   LIG    1        2.320  -6.073  -3.733  0.00  0.00    +0.000 C 
ENDBRANCH   5   6
ENDBRANCH   3   5
ENDBRANCH   1   3
BRANCH   1   8
ATOM      8  C   LIG    1        0.718  -0.497  -1.257  0.00  0.00    +0.010 C 
BRANCH   8  10
ATOM      9  C   LIG    1       -0.019   1.526   0.010  0.00  0.00    +0.000 C 
ATOM     10  C   LIG    1        0.002  -0.004   0.002  0.00  0.00    -0.010 C 
ENDBRANCH   8  10
ENDBRANCH   1   8
TORSDOF 5
ENDMDL
MODEL      114
REMARK  Name = ZINC000112731864
REMARK                            x       y       z     vdW  Elec       q    Type
REMARK                         _______ _______ _______ _____ _____    ______ ____
ROOT
ATOM      1  C   LIG    1       -0.746   1.894  -1.211  0.00  0.00    -0.150 A 
ATOM      2  C   LIG    1       -1.762   1.139  -1.766  0.00  0.00    +0.080 A 
ATOM      3  C   LIG    1       -2.431   1.596  -2.888  0.00  0.00    -0.030 A 
ATOM      4  C   LIG    1       -2.083   2.810  -3.453  0.00  0.00    +0.070 A 
ATOM      5  C   LIG    1       -1.067   3.566  -2.896  0.00  0.00    -0.030 A 
ATOM      6 CL   LIG    1       -0.631   5.090  -3.604  0.00  0.00    -0.040 Cl
ATOM      7 CL   LIG    1       -3.707   0.647  -3.585  0.00  0.00    -0.040 Cl
ATOM      8  C   LIG    1       -0.402   3.110  -1.772  0.00  0.00    +0.080 A 
ENDROOT
BRANCH   1  10
ATOM      9  F   LIG    1        0.002  -0.004   0.002  0.00  0.00    -0.190 F 
ATOM     10  C   LIG    1       -0.017   1.395   0.010  0.00  0.00    +0.450 C 
ATOM     11  F   LIG    1        1.296   1.879  -0.000  0.00  0.00    -0.190 F 
ENDBRANCH   1  10
TORSDOF 1
ENDMDL
MODEL      115
REMARK  Name = ZINC000112731858
REMARK                            x       y       z     vdW  Elec       q    Type
REMARK                         _______ _______ _______ _____ _____    ______ ____
ROOT
ATOM      1  C   LIG    1       -0.746   1.894  -1.211  0.00  0.00    -0.150 A 
ATOM      2  C   LIG    1       -1.761   1.139  -1.766  0.00  0.00    +0.080 A 
ATOM      3  C   LIG    1       -2.430   1.597  -2.887  0.00  0.00    -0.040 A 
ATOM      4  C   LIG    1       -2.083   2.812  -3.452  0.00  0.00    +0.070 A 
ATOM      5  C   LIG    1       -1.067   3.567  -2.897  0.00  0.00    +0.050 A 
ATOM      6 CL   LIG    1       -3.707   0.649  -3.585  0.00  0.00    -0.050 Cl
ATOM      7  C   LIG    1       -0.402   3.111  -1.773  0.00  0.00    -0.010 A 
ATOM      8 CL   LIG    1        0.874   4.059  -1.075  0.00  0.00    -0.040 Cl
ENDROOT
BRANCH   1  10
ATOM      9  F   LIG    1        0.002  -0.004   0.002  0.00  0.00    -0.190 F 
ATOM     10  C   LIG    1       -0.017   1.395   0.010  0.00  0.00    +0.440 C 
ATOM     11  F   LIG    1        1.296   1.879  -0.000  0.00  0.00    -0.190 F 
ENDBRANCH   1  10
TORSDOF 1
ENDMDL
MODEL      116
REMARK  Name = ZINC000001847592
REMARK                            x       y       z     vdW  Elec       q    Type
REMARK                         _______ _______ _______ _____ _____    ______ ____
ROOT
ATOM      1  C   LIG    1       -0.708   1.874  -1.243  0.00  0.00    -0.120 A 
ATOM      2  C   LIG    1       -1.652   1.075  -1.859  0.00  0.00    +0.060 A 
ATOM      3  C   LIG    1       -2.358   1.552  -2.948  0.00  0.00    +0.050 A 
ATOM      4  C   LIG    1       -2.121   2.830  -3.419  0.00  0.00    +0.040 A 
ATOM      5  C   LIG    1       -1.177   3.630  -2.802  0.00  0.00    +0.080 A 
ATOM      6  C   LIG    1       -0.474   3.154  -1.711  0.00  0.00    -0.150 A 
ENDROOT
BRANCH   6   7
ATOM      7  C   LIG    1        0.554   4.026  -1.038  0.00  0.00    +0.500 C 
ATOM      8  F   LIG    1        1.815   3.429  -1.147  0.00  0.00    -0.170 F 
ATOM      9  F   LIG    1        0.225   4.178   0.313  0.00  0.00    -0.170 F 
ATOM     10  F   LIG    1        0.578   5.281  -1.657  0.00  0.00    -0.170 F 
ENDBRANCH   6   7
BRANCH   1  12
ATOM     11  F   LIG    1       -0.814   1.156   1.017  0.00  0.00    -0.190 F 
ATOM     12  C   LIG    1        0.061   1.354  -0.057  0.00  0.00    +0.420 C 
ATOM     13  F   LIG    1        0.670   0.139  -0.392  0.00  0.00    -0.190 F 
ENDBRANCH   1  12
TORSDOF 2
ENDMDL
MODEL      117
REMARK  Name = ZINC000112731853
REMARK                            x       y       z     vdW  Elec       q    Type
REMARK                         _______ _______ _______ _____ _____    ______ ____
ROOT
ATOM      1  C   LIG    1       -0.746   1.894  -1.211  0.00  0.00    -0.150 A 
ATOM      2  C   LIG    1       -1.762   1.139  -1.766  0.00  0.00    +0.080 A 
ATOM      3  C   LIG    1       -2.431   1.597  -2.886  0.00  0.00    +0.050 A 
ATOM      4  C   LIG    1       -2.085   2.809  -3.452  0.00  0.00    +0.070 A 
ATOM      5  C   LIG    1       -1.069   3.566  -2.897  0.00  0.00    -0.040 A 
ATOM      6 CL   LIG    1       -0.634   5.090  -3.607  0.00  0.00    -0.040 Cl
ATOM      7  C   LIG    1       -0.402   3.111  -1.773  0.00  0.00    -0.010 A 
ATOM      8 CL   LIG    1        0.873   4.060  -1.075  0.00  0.00    -0.020 Cl
ENDROOT
BRANCH   1  10
ATOM      9  F   LIG    1        0.002  -0.004   0.002  0.00  0.00    -0.190 F 
ATOM     10  C   LIG    1       -0.017   1.395   0.010  0.00  0.00    +0.440 C 
ATOM     11  F   LIG    1        1.296   1.879  -0.000  0.00  0.00    -0.190 F 
ENDBRANCH   1  10
TORSDOF 1
ENDMDL
MODEL      118
REMARK  Name = ZINC000066318841
REMARK                            x       y       z     vdW  Elec       q    Type
REMARK                         _______ _______ _______ _____ _____    ______ ____
ROOT
ATOM      1  C   LIG    1       -0.746   1.894  -1.211  0.00  0.00    -0.140 A 
ATOM      2  C   LIG    1       -1.762   1.139  -1.767  0.00  0.00    +0.060 A 
ATOM      3  C   LIG    1       -2.430   1.597  -2.886  0.00  0.00    +0.080 A 
ATOM      4  C   LIG    1       -2.083   2.810  -3.451  0.00  0.00    -0.170 A 
ATOM      5  C   LIG    1       -1.068   3.566  -2.894  0.00  0.00    +0.080 A 
ATOM      6  C   LIG    1       -0.402   3.110  -1.772  0.00  0.00    +0.060 A 
ENDROOT
BRANCH   4   7
ATOM      7  C   LIG    1       -2.812   3.309  -4.672  0.00  0.00    +0.510 C 
ATOM      8  F   LIG    1       -3.248   2.219  -5.432  0.00  0.00    -0.170 F 
ATOM      9  F   LIG    1       -1.949   4.098  -5.440  0.00  0.00    -0.170 F 
ATOM     10  F   LIG    1       -3.915   4.074  -4.277  0.00  0.00    -0.170 F 
ENDBRANCH   4   7
BRANCH   1  12
ATOM     11  F   LIG    1        0.002  -0.004   0.002  0.00  0.00    -0.190 F 
ATOM     12  C   LIG    1       -0.017   1.395   0.010  0.00  0.00    +0.440 C 
ATOM     13  F   LIG    1        1.296   1.879  -0.000  0.00  0.00    -0.190 F 
ENDBRANCH   1  12
TORSDOF 2
ENDMDL
MODEL      119
REMARK  Name = ZINC000072265630
REMARK                            x       y       z     vdW  Elec       q    Type
REMARK                         _______ _______ _______ _____ _____    ______ ____
ROOT
ATOM      1  F   LIG    1        0.002  -0.004   0.002  0.00  0.00    -0.200 F 
ATOM      2  C   LIG    1       -0.017   1.395   0.010  0.00  0.00    +0.300 C 
ATOM      3  C   LIG    1       -0.733   1.888   1.268  0.00  0.00    +0.020 C 
ATOM      4  C   LIG    1       -0.754   3.418   1.277  0.00  0.00    +0.030 C 
ATOM      5  C   LIG    1        0.682   3.948   1.266  0.00  0.00    +0.010 C 
ATOM      6  C   LIG    1        1.398   3.454   0.007  0.00  0.00    +0.050 C 
ATOM      7  F   LIG    1       -0.694   1.858  -1.124  0.00  0.00    -0.200 F 
ATOM      8  C   LIG    1        1.419   1.924  -0.001  0.00  0.00    +0.030 C 
ENDROOT
BRANCH   8   9
ATOM      9  C   LIG    1        2.124   1.438  -1.241  0.00  0.00    -0.090 A 
ATOM     10  C   LIG    1        1.638   1.777  -2.490  0.00  0.00    +0.020 A 
ATOM     11  C   LIG    1        2.285   1.331  -3.627  0.00  0.00    +0.000 A 
ATOM     12  C   LIG    1        3.418   0.547  -3.516  0.00  0.00    +0.000 A 
ATOM     13  C   LIG    1        3.904   0.209  -2.267  0.00  0.00    +0.000 A 
ATOM     14  C   LIG    1        3.260   0.658  -1.129  0.00  0.00    +0.010 A 
ENDBRANCH   8   9
TORSDOF 1
ENDMDL
MODEL      120
REMARK  Name = ZINC000039119945
REMARK                            x       y       z     vdW  Elec       q    Type
REMARK                         _______ _______ _______ _____ _____    ______ ____
ROOT
ATOM      1  C   LIG    1        0.606  -0.607  -1.056  0.00  0.00    +0.140 A 
ATOM      2  C   LIG    1        1.174   0.176  -2.064  0.00  0.00    -0.050 A 
ATOM      3  C   LIG    1        1.785  -0.398  -3.136  0.00  0.00    +0.080 A 
ATOM      4  C   LIG    1        1.848  -1.798  -3.233  0.00  0.00    -0.080 A 
ATOM      5  C   LIG    1        2.472  -2.425  -4.327  0.00  0.00    -0.010 A 
ATOM      6  C   LIG    1        2.515  -3.785  -4.389  0.00  0.00    +0.020 A 
ATOM      7  C   LIG    1        1.950  -4.568  -3.384  0.00  0.00    +0.040 A 
ATOM      8  C   LIG    1        1.338  -3.996  -2.311  0.00  0.00    +0.030 A 
ATOM      9 CL   LIG    1        3.184  -1.471  -5.590  0.00  0.00    -0.060 Cl
ATOM     10  C   LIG    1        1.273  -2.595  -2.212  0.00  0.00    +0.000 A 
ATOM     11  C   LIG    1        0.654  -1.971  -1.116  0.00  0.00    -0.010 A 
ENDROOT
BRANCH   1  13
ATOM     12  C   LIG    1       -0.017   1.425   0.010  0.00  0.00    +0.240 C 
ATOM     13  O   LIG    1        0.002  -0.004   0.002  0.00  0.00    -0.320 OA
ENDBRANCH   1  13
TORSDOF 1
ENDMDL
MODEL      121
REMARK  Name = ZINC000002037798
REMARK                            x       y       z     vdW  Elec       q    Type
REMARK                         _______ _______ _______ _____ _____    ______ ____
ROOT
ATOM      1  C   LIG    1       -1.225  -2.050   0.078  0.00  0.00    +0.030 C 
ENDROOT
BRANCH   1   2
ATOM      2  C   LIG    1       -2.640  -2.563   0.152  0.00  0.00    -0.070 A 
ATOM      3  C   LIG    1       -3.552  -2.220  -0.829  0.00  0.00    +0.000 A 
ATOM      4  C   LIG    1       -4.850  -2.691  -0.762  0.00  0.00    +0.000 A 
ATOM      5  C   LIG    1       -5.236  -3.505   0.286  0.00  0.00    -0.010 A 
ATOM      6  C   LIG    1       -4.324  -3.849   1.267  0.00  0.00    +0.000 A 
ATOM      7  C   LIG    1       -3.025  -3.382   1.197  0.00  0.00    +0.000 A 
ENDBRANCH   1   2
BRANCH   1   8
ATOM      8  C   LIG    1       -0.576  -2.530  -1.221  0.00  0.00    +0.010 C 
ATOM      9  C   LIG    1       -0.436  -4.053  -1.189  0.00  0.00    +0.010 C 
ENDBRANCH   1   8
BRANCH   1  10
ATOM     10  C   LIG    1       -1.236  -0.520   0.109  0.00  0.00    +0.020 C 
BRANCH  10  12
ATOM     11  C   LIG    1       -1.655   1.482   1.543  0.00  0.00    +0.000 C 
ATOM     12  C   LIG    1       -1.771  -0.041   1.460  0.00  0.00    +0.000 C 
ENDBRANCH  10  12
ENDBRANCH   1  10
TORSDOF 4
ENDMDL
MODEL      122
REMARK  Name = ZINC000072265629
REMARK                            x       y       z     vdW  Elec       q    Type
REMARK                         _______ _______ _______ _____ _____    ______ ____
ROOT
ATOM      1  F   LIG    1        0.002  -0.004   0.002  0.00  0.00    -0.200 F 
ATOM      2  C   LIG    1       -0.017   1.395   0.010  0.00  0.00    +0.300 C 
ATOM      3  C   LIG    1       -0.733   1.888   1.268  0.00  0.00    +0.020 C 
ATOM      4  C   LIG    1        0.007   1.381   2.508  0.00  0.00    +0.030 C 
ATOM      5  C   LIG    1        1.442   1.911   2.497  0.00  0.00    +0.010 C 
ATOM      6  C   LIG    1        2.159   1.417   1.238  0.00  0.00    +0.050 C 
ATOM      7  F   LIG    1       -0.694   1.858  -1.124  0.00  0.00    -0.200 F 
ATOM      8  C   LIG    1        1.419   1.924  -0.001  0.00  0.00    +0.030 C 
ENDROOT
BRANCH   8   9
ATOM      9  C   LIG    1        2.124   1.438  -1.241  0.00  0.00    -0.090 A 
ATOM     10  C   LIG    1        2.261   0.082  -1.471  0.00  0.00    +0.020 A 
ATOM     11  C   LIG    1        2.909  -0.363  -2.609  0.00  0.00    +0.000 A 
ATOM     12  C   LIG    1        3.417   0.547  -3.516  0.00  0.00    +0.000 A 
ATOM     13  C   LIG    1        3.279   1.903  -3.286  0.00  0.00    +0.000 A 
ATOM     14  C   LIG    1        2.628   2.349  -2.151  0.00  0.00    +0.010 A 
ENDBRANCH   8   9
TORSDOF 1
ENDMDL
MODEL      123
REMARK  Name = ZINC000199547725
REMARK                            x       y       z     vdW  Elec       q    Type
REMARK                         _______ _______ _______ _____ _____    ______ ____
ROOT
ATOM      1  C   LIG    1       -2.640  -2.563   0.152  0.00  0.00    -0.100 A 
ATOM      2  C   LIG    1       -3.551  -2.220  -0.830  0.00  0.00    +0.050 A 
ATOM      3  C   LIG    1       -4.849  -2.689  -0.765  0.00  0.00    -0.020 A 
ATOM      4  C   LIG    1       -5.238  -3.506   0.286  0.00  0.00    +0.120 A 
ATOM      5  C   LIG    1       -4.322  -3.850   1.270  0.00  0.00    -0.080 A 
ATOM      6  C   LIG    1       -3.024  -3.382   1.198  0.00  0.00    +0.040 A 
ENDROOT
BRANCH   4   7
ATOM      7  O   LIG    1       -6.513  -3.969   0.352  0.00  0.00    -0.320 OA
ATOM      8  C   LIG    1       -6.843  -4.806   1.463  0.00  0.00    +0.250 C 
ENDBRANCH   4   7
BRANCH   1   9
ATOM      9  C   LIG    1       -1.225  -2.050   0.078  0.00  0.00    +0.030 C 
BRANCH   9  10
ATOM     10  C   LIG    1       -0.576  -2.530  -1.221  0.00  0.00    +0.000 C 
ATOM     11  C   LIG    1       -0.436  -4.053  -1.189  0.00  0.00    +0.010 C 
ENDBRANCH   9  10
BRANCH   9  12
ATOM     12  C   LIG    1       -1.235  -0.520   0.109  0.00  0.00    +0.010 C 
BRANCH  12  14
ATOM     13  C   LIG    1       -1.655   1.482   1.543  0.00  0.00    +0.000 C 
ATOM     14  C   LIG    1       -1.771  -0.041   1.460  0.00  0.00    +0.000 C 
ENDBRANCH  12  14
ENDBRANCH   9  12
ENDBRANCH   1   9
TORSDOF 5
ENDMDL
MODEL      124
REMARK  Name = ZINC000021982742
REMARK                            x       y       z     vdW  Elec       q    Type
REMARK                         _______ _______ _______ _____ _____    ______ ____
ROOT
ATOM      1  C   LIG    1       -0.491   1.454  -0.002  0.00  0.00    +0.150 C 
ATOM      2  C   LIG    1       -0.202  -0.025  -0.003  0.00  0.00    +0.060 A 
ATOM      3  C   LIG    1        0.007  -0.775  -1.100  0.00  0.00    -0.160 A 
ATOM      4  C   LIG    1        0.243  -2.104  -0.675  0.00  0.00    -0.100 A 
ATOM      5  C   LIG    1        0.163  -2.105   0.722  0.00  0.00    +0.070 A 
ATOM      6  C   LIG    1        0.356  -3.296   1.435  0.00  0.00    +0.020 A 
ATOM      7  C   LIG    1        0.621  -4.466   0.805  0.00  0.00    +0.030 A 
ATOM      8  C   LIG    1        0.714  -4.532  -0.600  0.00  0.00    -0.070 A 
ATOM      9  C   LIG    1        0.989  -5.742  -1.255  0.00  0.00    +0.030 A 
ATOM     10  C   LIG    1        1.072  -5.771  -2.615  0.00  0.00    -0.010 A 
ATOM     11  C   LIG    1        0.889  -4.615  -3.367  0.00  0.00    +0.010 A 
ATOM     12  C   LIG    1        0.621  -3.421  -2.762  0.00  0.00    +0.010 A 
ATOM     13  C   LIG    1        0.528  -3.357  -1.368  0.00  0.00    +0.000 A 
ATOM     14  C   LIG    1       -0.006  -0.287  -2.526  0.00  0.00    +0.110 C 
ATOM     15  N   LIG    1       -0.106  -0.812   1.110  0.00  0.00    -0.570 N 
ATOM     16  H   LIG    1       -0.216  -0.510   2.026  0.00  0.00    +0.420 HD
ENDROOT
TORSDOF 0
ENDMDL
MODEL      125
REMARK  Name = ZINC000021989190
REMARK                            x       y       z     vdW  Elec       q    Type
REMARK                         _______ _______ _______ _____ _____    ______ ____
ROOT
ATOM      1  C   LIG    1       -0.019   1.526   0.010  0.00  0.00    +0.010 C 
ATOM      2  C   LIG    1        0.002  -0.004   0.002  0.00  0.00    -0.020 C 
ATOM      3  C   LIG    1        0.718  -0.497  -1.257  0.00  0.00    +0.000 C 
ATOM      4  C   LIG    1        2.154   0.032  -1.268  0.00  0.00    +0.010 C 
ATOM      5  C   LIG    1        2.894  -0.475  -0.028  0.00  0.00    -0.010 C 
ATOM      6  C   LIG    1        2.178   0.019   1.231  0.00  0.00    +0.010 C 
ATOM      7  C   LIG    1        0.742  -0.511   1.242  0.00  0.00    +0.000 C 
ENDROOT
BRANCH   5   8
ATOM      8  C   LIG    1        4.329   0.055  -0.039  0.00  0.00    -0.010 C 
ATOM      9  C   LIG    1        5.065  -0.445   1.205  0.00  0.00    +0.040 C 
ATOM     10  C   LIG    1        6.472   0.160   1.242  0.00  0.00    +0.020 C 
ATOM     11  C   LIG    1        7.167  -0.159  -0.064  0.00  0.00    +0.360 C 
ATOM     12  C   LIG    1        6.450   0.166  -1.355  0.00  0.00    +0.020 C 
ATOM     13  O   LIG    1        8.266  -0.660  -0.074  0.00  0.00    -0.460 OA
ATOM     14  C   LIG    1        5.044  -0.439  -1.298  0.00  0.00    +0.040 C 
ENDBRANCH   5   8
TORSDOF 1
ENDMDL
MODEL      126
REMARK  Name = ZINC000003075449
REMARK                            x       y       z     vdW  Elec       q    Type
REMARK                         _______ _______ _______ _____ _____    ______ ____
ROOT
ATOM      1  C   LIG    1       -0.017   1.378   0.010  0.00  0.00    +0.000 A 
ATOM      2  C   LIG    1        1.171   2.086   0.002  0.00  0.00    +0.000 A 
ATOM      3  C   LIG    1        2.377   1.411  -0.013  0.00  0.00    +0.000 A 
ATOM      4  C   LIG    1        2.396   0.029  -0.020  0.00  0.00    -0.070 A 
ATOM      5  C   LIG    1        1.208  -0.679  -0.011  0.00  0.00    +0.010 A 
ATOM      6  C   LIG    1        0.002  -0.004   0.002  0.00  0.00    +0.000 A 
ENDROOT
BRANCH   4   7
ATOM      7  C   LIG    1        3.711  -0.707  -0.037  0.00  0.00    +0.070 C 
ATOM      8  C   LIG    1        3.790  -1.556  -1.272  0.00  0.00    -0.050 C 
ATOM      9  C   LIG    1        4.239  -2.771  -1.289  0.00  0.00    -0.050 C 
ATOM     10  C   LIG    1        4.732  -3.502  -0.076  0.00  0.00    +0.050 C 
ATOM     11  C   LIG    1        5.029  -2.512   1.052  0.00  0.00    +0.020 C 
ATOM     12  C   LIG    1        3.817  -1.586   1.211  0.00  0.00    +0.030 C 
ENDBRANCH   4   7
TORSDOF 1
ENDMDL
MODEL      127
REMARK  Name = ZINC000002581437
REMARK                            x       y       z     vdW  Elec       q    Type
REMARK                         _______ _______ _______ _____ _____    ______ ____
ROOT
ATOM      1  F   LIG    1        0.002  -0.004   0.002  0.00  0.00    -0.190 F 
ATOM      2  C   LIG    1       -0.017   1.395   0.010  0.00  0.00    +0.290 C 
ATOM      3  C   LIG    1       -0.646   1.899   1.285  0.00  0.00    -0.130 A 
ATOM      4  C   LIG    1       -1.903   1.730   1.827  0.00  0.00    +0.050 A 
ATOM      5  C   LIG    1       -2.219   2.317   3.039  0.00  0.00    +0.020 A 
ATOM      6  C   LIG    1       -1.276   3.075   3.710  0.00  0.00    +0.020 A 
ATOM      7  C   LIG    1       -0.017   3.249   3.175  0.00  0.00    +0.030 A 
ATOM      8  C   LIG    1        0.310   2.660   1.953  0.00  0.00    -0.040 A 
ATOM      9  C   LIG    1        1.565   2.681   1.161  0.00  0.00    -0.040 A 
ATOM     10  C   LIG    1        2.793   3.297   1.403  0.00  0.00    +0.030 A 
ATOM     11  C   LIG    1        3.823   3.162   0.494  0.00  0.00    +0.020 A 
ATOM     12  C   LIG    1        3.642   2.417  -0.657  0.00  0.00    +0.020 A 
ATOM     13  C   LIG    1        2.427   1.803  -0.903  0.00  0.00    +0.050 A 
ATOM     14  C   LIG    1        1.393   1.933  -0.001  0.00  0.00    -0.130 A 
ENDROOT
TORSDOF 0
ENDMDL
MODEL      128
REMARK  Name = ZINC000104084112
REMARK                            x       y       z     vdW  Elec       q    Type
REMARK                         _______ _______ _______ _____ _____    ______ ____
ROOT
ATOM      1  C   LIG    1        3.711  -0.707  -0.037  0.00  0.00    +0.040 C 
ATOM      2  C   LIG    1        3.872  -1.494   1.266  0.00  0.00    +0.030 C 
ATOM      3  C   LIG    1        4.009  -2.989   0.949  0.00  0.00    +0.020 C 
ATOM      4  C   LIG    1        5.174  -3.156  -0.016  0.00  0.00    -0.040 C 
ATOM      5  C   LIG    1        5.034  -2.471  -1.149  0.00  0.00    -0.040 C 
ATOM      6  C   LIG    1        2.728  -3.451   0.241  0.00  0.00    +0.020 C 
ATOM      7  C   LIG    1        2.575  -2.661  -1.077  0.00  0.00    +0.010 C 
ATOM      8  C   LIG    1        3.740  -1.674  -1.228  0.00  0.00    +0.030 C 
ENDROOT
BRANCH   1  12
ATOM      9  C   LIG    1       -0.016   1.379   0.012  0.00  0.00    -0.010 A 
ATOM     10  C   LIG    1        0.069   0.104   0.540  0.00  0.00    +0.000 A 
ATOM     11  C   LIG    1        1.276  -0.571   0.524  0.00  0.00    +0.010 A 
ATOM     12  C   LIG    1        2.396   0.029  -0.020  0.00  0.00    -0.070 A 
ATOM     13  C   LIG    1        2.310   1.303  -0.549  0.00  0.00    +0.000 A 
ATOM     14  C   LIG    1        1.104   1.978  -0.531  0.00  0.00    +0.000 A 
ENDBRANCH   1  12
TORSDOF 1
ENDMDL
MODEL      129
REMARK  Name = ZINC000003075450
REMARK                            x       y       z     vdW  Elec       q    Type
REMARK                         _______ _______ _______ _____ _____    ______ ____
ROOT
ATOM      1  C   LIG    1       -0.017   1.378   0.010  0.00  0.00    +0.000 A 
ATOM      2  C   LIG    1        1.171   2.086   0.002  0.00  0.00    +0.000 A 
ATOM      3  C   LIG    1        2.377   1.411  -0.013  0.00  0.00    +0.000 A 
ATOM      4  C   LIG    1        2.396   0.029  -0.020  0.00  0.00    -0.070 A 
ATOM      5  C   LIG    1        1.208  -0.679  -0.011  0.00  0.00    +0.010 A 
ATOM      6  C   LIG    1        0.002  -0.004   0.002  0.00  0.00    +0.000 A 
ENDROOT
BRANCH   4   7
ATOM      7  C   LIG    1        3.711  -0.707  -0.037  0.00  0.00    +0.070 C 
ATOM      8  C   LIG    1        3.815  -1.569   1.187  0.00  0.00    -0.050 C 
ATOM      9  C   LIG    1        4.264  -2.783   1.184  0.00  0.00    -0.050 C 
ATOM     10  C   LIG    1        4.734  -3.502  -0.047  0.00  0.00    +0.050 C 
ATOM     11  C   LIG    1        5.007  -2.500  -1.171  0.00  0.00    +0.020 C 
ATOM     12  C   LIG    1        3.792  -1.573  -1.296  0.00  0.00    +0.030 C 
ENDBRANCH   4   7
TORSDOF 1
ENDMDL
MODEL      130
REMARK  Name = ZINC000016155410
REMARK                            x       y       z     vdW  Elec       q    Type
REMARK                         _______ _______ _______ _____ _____    ______ ____
ROOT
ATOM      1  C   LIG    1       -0.019   1.529   0.010  0.00  0.00    -0.020 C 
ATOM      2  C   LIG    1        1.250   1.909   0.000  0.00  0.00    -0.020 C 
ATOM      3  C   LIG    1        2.076   0.618  -0.015  0.00  0.00    +0.270 C 
ATOM      4  O   LIG    1        1.197  -0.243  -0.824  0.00  0.00    -0.350 OA
ATOM      5  C   LIG    1        1.891   0.012   1.375  0.00  0.00    -0.120 A 
ATOM      6  C   LIG    1        2.690  -0.190   2.444  0.00  0.00    +0.060 A 
ATOM      7  C   LIG    1        2.168  -0.837   3.581  0.00  0.00    -0.050 A 
ATOM      8  C   LIG    1        2.965  -1.070   4.714  0.00  0.00    +0.030 A 
ATOM      9  C   LIG    1        2.428  -1.697   5.797  0.00  0.00    +0.020 A 
ATOM     10  C   LIG    1        1.098  -2.113   5.799  0.00  0.00    +0.020 A 
ATOM     11  C   LIG    1        0.296  -1.905   4.719  0.00  0.00    +0.020 A 
ATOM     12  C   LIG    1        0.815  -1.262   3.582  0.00  0.00    -0.050 A 
ATOM     13  C   LIG    1       -0.027  -1.024   2.450  0.00  0.00    +0.070 A 
ATOM     14  C   LIG    1        0.523  -0.420   1.376  0.00  0.00    -0.120 A 
ATOM     15  C   LIG    1        0.002  -0.004   0.002  0.00  0.00    +0.270 C 
ENDROOT
TORSDOF 0
ENDMDL
MODEL      131
REMARK  Name = ZINC000104084108
REMARK                            x       y       z     vdW  Elec       q    Type
REMARK                         _______ _______ _______ _____ _____    ______ ____
ROOT
ATOM      1  C   LIG    1        3.711  -0.707  -0.037  0.00  0.00    +0.040 C 
ATOM      2  C   LIG    1        3.792  -1.579  -1.292  0.00  0.00    +0.030 C 
ATOM      3  C   LIG    1        3.951  -3.050  -0.887  0.00  0.00    +0.020 C 
ATOM      4  C   LIG    1        2.795  -3.407   0.035  0.00  0.00    -0.050 C 
ATOM      5  C   LIG    1        2.725  -2.649   1.127  0.00  0.00    -0.030 C 
ATOM      6  C   LIG    1        5.259  -3.192  -0.096  0.00  0.00    +0.020 C 
ATOM      7  C   LIG    1        5.170  -2.318   1.174  0.00  0.00    +0.030 C 
ATOM      8  C   LIG    1        3.817  -1.593   1.210  0.00  0.00    +0.030 C 
ENDROOT
BRANCH   1  12
ATOM      9  C   LIG    1       -0.017   1.378   0.010  0.00  0.00    -0.010 A 
ATOM     10  C   LIG    1        1.171   2.086   0.002  0.00  0.00    +0.000 A 
ATOM     11  C   LIG    1        2.377   1.411  -0.013  0.00  0.00    +0.000 A 
ATOM     12  C   LIG    1        2.396   0.029  -0.020  0.00  0.00    -0.070 A 
ATOM     13  C   LIG    1        1.208  -0.679  -0.011  0.00  0.00    +0.020 A 
ATOM     14  C   LIG    1        0.002  -0.004   0.002  0.00  0.00    +0.000 A 
ENDBRANCH   1  12
TORSDOF 1
ENDMDL
MODEL      132
REMARK  Name = ZINC000004299218
REMARK                            x       y       z     vdW  Elec       q    Type
REMARK                         _______ _______ _______ _____ _____    ______ ____
ROOT
ATOM      1  F   LIG    1        0.002  -0.004   0.002  0.00  0.00    -0.140 F 
ATOM      2  C   LIG    1       -0.016   1.347   0.009  0.00  0.00    +0.100 A 
ATOM      3  C   LIG    1       -1.226   2.021   0.030  0.00  0.00    -0.010 A 
ATOM      4  C   LIG    1       -1.250   3.401   0.038  0.00  0.00    +0.050 A 
ATOM      5  C   LIG    1       -0.054   4.116   0.025  0.00  0.00    -0.030 A 
ATOM      6  C   LIG    1        1.161   3.433   0.004  0.00  0.00    +0.060 A 
ATOM      7  C   LIG    1        1.175   2.054   0.002  0.00  0.00    -0.010 A 
ENDROOT
BRANCH   5   8
ATOM      8  C   LIG    1       -0.074   5.600   0.034  0.00  0.00    -0.060 A 
ATOM      9  C   LIG    1       -1.215   6.312   0.060  0.00  0.00    -0.040 A 
ATOM     10  S   LIG    1       -0.836   8.029   0.062  0.00  0.00    +0.120 S 
ATOM     11  C   LIG    1        0.888   7.685   0.027  0.00  0.00    -0.040 A 
ATOM     12  C   LIG    1        1.087   6.370   0.022  0.00  0.00    +0.010 A 
ENDBRANCH   5   8
TORSDOF 1
ENDMDL
MODEL      133
REMARK  Name = ZINC000001720494
REMARK                            x       y       z     vdW  Elec       q    Type
REMARK                         _______ _______ _______ _____ _____    ______ ____
ROOT
ATOM      1  C   LIG    1       -0.017   1.389   0.010  0.00  0.00    +0.020 A 
ATOM      2  C   LIG    1        1.141   2.105   0.003  0.00  0.00    +0.020 A 
ATOM      3  C   LIG    1        2.374   1.430  -0.013  0.00  0.00    -0.050 A 
ATOM      4  C   LIG    1        3.590   2.136  -0.024  0.00  0.00    +0.050 A 
ATOM      5  C   LIG    1        4.768   1.455  -0.036  0.00  0.00    +0.030 A 
ATOM      6  C   LIG    1        4.807   0.062  -0.039  0.00  0.00    -0.110 A 
ATOM      7  C   LIG    1        6.155  -0.617  -0.039  0.00  0.00    +0.170 C 
ATOM      8  S   LIG    1        6.070  -2.103   0.992  0.00  0.00    -0.150 S 
ATOM      9  C   LIG    1        4.575  -2.796   0.366  0.00  0.00    +0.360 C 
ATOM     10  N   LIG    1        3.616  -2.033  -0.047  0.00  0.00    -0.470 NA
ATOM     11  C   LIG    1        3.636  -0.674  -0.035  0.00  0.00    +0.100 A 
ATOM     12  C   LIG    1        2.392   0.016  -0.020  0.00  0.00    -0.020 A 
ATOM     13  C   LIG    1        1.180  -0.689  -0.012  0.00  0.00    +0.050 A 
ATOM     14  C   LIG    1        0.002  -0.004   0.002  0.00  0.00    +0.010 A 
ENDROOT
TORSDOF 0
ENDMDL
MODEL      134
REMARK  Name = ZINC000059817340
REMARK                            x       y       z     vdW  Elec       q    Type
REMARK                         _______ _______ _______ _____ _____    ______ ____
ROOT
ATOM      1  F   LIG    1        0.002  -0.004   0.002  0.00  0.00    -0.140 F 
ATOM      2  C   LIG    1       -0.016   1.347   0.009  0.00  0.00    +0.110 A 
ATOM      3  C   LIG    1       -1.239   2.018   0.030  0.00  0.00    +0.000 A 
ATOM      4  C   LIG    1       -1.292   3.378   0.039  0.00  0.00    +0.070 A 
ATOM      5  C   LIG    1       -0.099   4.120   0.026  0.00  0.00    -0.060 A 
ATOM      6  C   LIG    1       -0.114   5.527   0.035  0.00  0.00    -0.020 A 
ATOM      7  C   LIG    1        1.062   6.213   0.023  0.00  0.00    +0.040 A 
ATOM      8  C   LIG    1        2.284   5.543   0.002  0.00  0.00    +0.040 A 
ATOM      9  C   LIG    1        2.337   4.183  -0.007  0.00  0.00    +0.040 A 
ATOM     10 CL   LIG    1       -1.624   6.383   0.062  0.00  0.00    -0.060 Cl
ATOM     11  C   LIG    1        1.144   3.440   0.005  0.00  0.00    -0.020 A 
ATOM     12  C   LIG    1        1.161   2.035   0.002  0.00  0.00    +0.010 A 
ENDROOT
TORSDOF 0
ENDMDL
MODEL      135
REMARK  Name = ZINC000098213769
REMARK                            x       y       z     vdW  Elec       q    Type
REMARK                         _______ _______ _______ _____ _____    ______ ____
ROOT
ATOM      1  F   LIG    1        0.002  -0.004   0.002  0.00  0.00    -0.140 F 
ATOM      2  C   LIG    1       -0.016   1.347   0.009  0.00  0.00    +0.070 A 
ATOM      3  C   LIG    1       -1.231   2.022   0.030  0.00  0.00    +0.010 A 
ATOM      4  C   LIG    1       -1.269   3.399   0.038  0.00  0.00    +0.030 A 
ATOM      5  C   LIG    1       -0.085   4.126   0.025  0.00  0.00    +0.090 A 
ATOM      6  N   LIG    1        0.199   5.475   0.027  0.00  0.00    -0.590 N 
ATOM      7  H   LIG    1       -0.464   6.184   0.040  0.00  0.00    +0.420 HD
ATOM      8  C   LIG    1        1.553   5.666   0.009  0.00  0.00    +0.230 A 
ATOM      9  C   LIG    1        2.182   4.480  -0.006  0.00  0.00    -0.150 A 
ATOM     10  C   LIG    1        1.146   3.445   0.004  0.00  0.00    -0.080 A 
ATOM     11  C   LIG    1        1.170   2.049   0.002  0.00  0.00    +0.020 A 
ENDROOT
BRANCH   9  12
ATOM     12  C   LIG    1        3.672   4.256  -0.027  0.00  0.00    +0.060 C 
ATOM     13  C   LIG    1        4.436   5.274  -0.891  0.00  0.00    +0.020 C 
ATOM     14  C   LIG    1        5.511   5.282   0.208  0.00  0.00    +0.010 C 
ATOM     15  C   LIG    1        4.403   4.856   1.186  0.00  0.00    +0.020 C 
ENDBRANCH   9  12
TORSDOF 1
ENDMDL
MODEL      136
REMARK  Name = ZINC000098213740
REMARK                            x       y       z     vdW  Elec       q    Type
REMARK                         _______ _______ _______ _____ _____    ______ ____
ROOT
ATOM      1  F   LIG    1        0.002  -0.004   0.002  0.00  0.00    -0.140 F 
ATOM      2  C   LIG    1       -0.016   1.347   0.009  0.00  0.00    +0.120 A 
ATOM      3  C   LIG    1       -1.233   2.019   0.030  0.00  0.00    -0.040 A 
ATOM      4  C   LIG    1       -1.270   3.385   0.038  0.00  0.00    +0.090 A 
ATOM      5  C   LIG    1       -0.079   4.112   0.025  0.00  0.00    -0.110 A 
ATOM      6  C   LIG    1        0.241   5.542   0.028  0.00  0.00    -0.150 A 
ATOM      7  C   LIG    1        1.579   5.645   0.009  0.00  0.00    +0.220 A 
ATOM      8  N   LIG    1        2.143   4.397  -0.005  0.00  0.00    -0.590 N 
ATOM      9  H   LIG    1        3.096   4.217  -0.020  0.00  0.00    +0.420 HD
ATOM     10  C   LIG    1        1.156   3.437   0.004  0.00  0.00    +0.120 A 
ATOM     11  C   LIG    1        1.173   2.047   0.002  0.00  0.00    -0.040 A 
ENDROOT
BRANCH   6  12
ATOM     12  C   LIG    1       -0.746   6.681   0.049  0.00  0.00    +0.060 C 
ATOM     13  C   LIG    1       -0.291   7.874   0.906  0.00  0.00    +0.020 C 
ATOM     14  C   LIG    1       -0.864   8.782  -0.195  0.00  0.00    +0.000 C 
ATOM     15  C   LIG    1       -0.634   7.614  -1.168  0.00  0.00    +0.020 C 
ENDBRANCH   6  12
TORSDOF 1
ENDMDL
MODEL      137
REMARK  Name = ZINC000116740802
REMARK                            x       y       z     vdW  Elec       q    Type
REMARK                         _______ _______ _______ _____ _____    ______ ____
ROOT
ATOM      1  F   LIG    1        0.002  -0.004   0.002  0.00  0.00    -0.130 F 
ATOM      2  C   LIG    1       -0.016   1.347   0.009  0.00  0.00    +0.130 A 
ATOM      3  C   LIG    1       -1.230   2.024   0.030  0.00  0.00    +0.000 A 
ATOM      4  C   LIG    1       -1.264   3.385   0.038  0.00  0.00    +0.100 A 
ATOM      5  C   LIG    1       -0.066   4.130   0.025  0.00  0.00    -0.080 A 
ATOM      6  C   LIG    1        0.122   5.573   0.029  0.00  0.00    -0.030 A 
ATOM      7  C   LIG    1        1.379   5.969   0.014  0.00  0.00    -0.010 A 
ATOM      8  S   LIG    1        2.480   4.604  -0.009  0.00  0.00    +0.150 S 
ATOM      9 CL   LIG    1       -1.208   6.688   0.054  0.00  0.00    -0.040 Cl
ATOM     10  C   LIG    1        1.154   3.448   0.004  0.00  0.00    -0.120 A 
ATOM     11  C   LIG    1        1.168   2.050   0.002  0.00  0.00    +0.030 A 
ENDROOT
TORSDOF 0
ENDMDL
MODEL      138
REMARK  Name = ZINC000032008602
REMARK                            x       y       z     vdW  Elec       q    Type
REMARK                         _______ _______ _______ _____ _____    ______ ____
ROOT
ATOM      1  C   LIG    1       -2.820  -2.586   0.139  0.00  0.00    -0.120 A 
ATOM      2  C   LIG    1       -3.615  -2.728  -0.983  0.00  0.00    +0.010 A 
ATOM      3  C   LIG    1       -4.905  -3.207  -0.860  0.00  0.00    +0.010 A 
ATOM      4  C   LIG    1       -5.401  -3.544   0.386  0.00  0.00    -0.070 A 
ATOM      5  C   LIG    1       -4.606  -3.403   1.508  0.00  0.00    +0.010 A 
ATOM      6  C   LIG    1       -3.314  -2.928   1.384  0.00  0.00    +0.010 A 
ENDROOT
BRANCH   4   7
ATOM      7  C   LIG    1       -6.809  -4.066   0.520  0.00  0.00    +0.020 C 
ATOM      8  C   LIG    1       -7.613  -3.134   1.428  0.00  0.00    +0.040 C 
ATOM      9  C   LIG    1       -6.776  -5.469   1.129  0.00  0.00    +0.030 C 
ENDBRANCH   4   7
BRANCH   1  10
ATOM     10  C   LIG    1       -1.413  -2.063   0.004  0.00  0.00    +0.260 C 
BRANCH  10  11
ATOM     11  O   LIG    1       -0.849  -2.526  -1.224  0.00  0.00    -0.550 OA
ATOM     12  H   LIG    1       -1.334  -2.242  -2.011  0.00  0.00    +0.370 HD
ENDBRANCH  10  11
BRANCH  10  13
ATOM     13  C   LIG    1       -1.433  -0.534   0.013  0.00  0.00    -0.010 C 
BRANCH  13  15
ATOM     14  C   LIG    1       -0.019   1.526   0.010  0.00  0.00    +0.010 C 
ATOM     15  C   LIG    1        0.002  -0.004   0.002  0.00  0.00    +0.010 C 
ENDBRANCH  13  15
ENDBRANCH  10  13
ENDBRANCH   1  10
TORSDOF 5
ENDMDL
MODEL      139
REMARK  Name = ZINC000016947487
REMARK                            x       y       z     vdW  Elec       q    Type
REMARK                         _______ _______ _______ _____ _____    ______ ____
ROOT
ATOM      1  F   LIG    1        0.002  -0.004   0.002  0.00  0.00    -0.140 F 
ATOM      2  C   LIG    1       -0.016   1.347   0.009  0.00  0.00    +0.110 A 
ATOM      3  C   LIG    1       -1.226   2.022   0.030  0.00  0.00    -0.010 A 
ATOM      4  C   LIG    1       -1.252   3.405   0.038  0.00  0.00    +0.060 A 
ATOM      5  C   LIG    1       -0.073   4.121   0.025  0.00  0.00    +0.000 A 
ATOM      6  C   LIG    1        1.150   3.448   0.005  0.00  0.00    +0.020 A 
ATOM      7  C   LIG    1        1.172   2.053   0.002  0.00  0.00    +0.000 A 
ENDROOT
BRANCH   6   8
ATOM      8  C   LIG    1        2.416   4.210  -0.009  0.00  0.00    -0.150 A 
ATOM      9  C   LIG    1        3.650   3.669  -0.035  0.00  0.00    +0.020 A 
ATOM     10  C   LIG    1        4.682   4.585  -0.044  0.00  0.00    +0.000 A 
ATOM     11  C   LIG    1        4.302   5.866  -0.026  0.00  0.00    -0.040 A 
ATOM     12  S   LIG    1        2.546   5.964  -0.002  0.00  0.00    +0.130 S 
ENDBRANCH   6   8
TORSDOF 1
ENDMDL
MODEL      140
REMARK  Name = ZINC000001680749
REMARK                            x       y       z     vdW  Elec       q    Type
REMARK                         _______ _______ _______ _____ _____    ______ ____
ROOT
ATOM      1  C   LIG    1        1.701  -1.666   0.854  0.00  0.00    -0.010 C 
ATOM      2  C   LIG    1        0.955  -2.853   0.240  0.00  0.00    +0.010 C 
ATOM      3  C   LIG    1        1.169  -4.094   1.108  0.00  0.00    +0.000 C 
ATOM      4  C   LIG    1        2.663  -4.414   1.181  0.00  0.00    +0.000 C 
ATOM      5  C   LIG    1        3.410  -3.227   1.794  0.00  0.00    +0.000 C 
ATOM      6  C   LIG    1        3.195  -1.986   0.926  0.00  0.00    +0.010 C 
ENDROOT
BRANCH   1  10
ATOM      7  C   LIG    1       -0.019   1.534   0.011  0.00  0.00    -0.010 C 
ATOM      8  C   LIG    1        1.453   1.995  -0.001  0.00  0.00    -0.010 C 
ATOM      9  C   LIG    1        2.232   0.792   0.586  0.00  0.00    +0.010 C 
ATOM     10  C   LIG    1        1.486  -0.425  -0.014  0.00  0.00    -0.020 C 
ATOM     11  C   LIG    1        0.002  -0.004   0.002  0.00  0.00    +0.000 C 
ENDBRANCH   1  10
TORSDOF 1
ENDMDL
MODEL      141
REMARK  Name = ZINC000002560299
REMARK                            x       y       z     vdW  Elec       q    Type
REMARK                         _______ _______ _______ _____ _____    ______ ____
ROOT
ATOM      1  F   LIG    1        0.011  -0.002   0.198  0.00  0.00    -0.130 F 
ATOM      2  C   LIG    1       -0.008   1.291  -0.194  0.00  0.00    +0.070 A 
ATOM      3  C   LIG    1       -1.211   1.909  -0.483  0.00  0.00    +0.030 A 
ATOM      4  C   LIG    1       -1.229   3.233  -0.884  0.00  0.00    +0.020 A 
ATOM      5  C   LIG    1       -0.047   3.940  -0.998  0.00  0.00    +0.040 A 
ATOM      6  C   LIG    1        1.158   3.327  -0.710  0.00  0.00    -0.030 A 
ATOM      7  C   LIG    1        1.181   2.003  -0.302  0.00  0.00    +0.090 A 
ENDROOT
BRANCH   7   8
ATOM      8  O   LIG    1        2.365   1.398  -0.018  0.00  0.00    -0.250 OA
BRANCH   8   9
ATOM      9  C   LIG    1        3.502   2.132  -0.141  0.00  0.00    +0.080 A 
ATOM     10  C   LIG    1        3.985   2.851   0.943  0.00  0.00    +0.010 A 
ATOM     11  C   LIG    1        5.141   3.596   0.815  0.00  0.00    +0.020 A 
ATOM     12  C   LIG    1        5.816   3.627  -0.391  0.00  0.00    +0.020 A 
ATOM     13  C   LIG    1        5.336   2.911  -1.473  0.00  0.00    +0.020 A 
ATOM     14  C   LIG    1        4.184   2.159  -1.349  0.00  0.00    +0.010 A 
ENDBRANCH   8   9
ENDBRANCH   7   8
TORSDOF 2
ENDMDL
MODEL      142
REMARK  Name = ZINC000083332358
REMARK                            x       y       z     vdW  Elec       q    Type
REMARK                         _______ _______ _______ _____ _____    ______ ____
ROOT
ATOM      1  C   LIG    1       -1.413  -2.063   0.004  0.00  0.00    -0.010 C 
ATOM      2  C   LIG    1       -0.784  -2.572   1.303  0.00  0.00    +0.000 C 
ATOM      3  C   LIG    1       -0.763  -4.102   1.295  0.00  0.00    +0.000 C 
ATOM      4  C   LIG    1       -2.194  -4.631   1.180  0.00  0.00    +0.000 C 
ATOM      5  C   LIG    1       -2.823  -4.122  -0.119  0.00  0.00    +0.000 C 
ATOM      6  C   LIG    1       -2.844  -2.592  -0.110  0.00  0.00    -0.020 C 
ATOM      7  C   LIG    1       -3.667  -2.100   1.082  0.00  0.00    +0.020 C 
ENDROOT
BRANCH   1   8
ATOM      8  C   LIG    1       -1.433  -0.534   0.013  0.00  0.00    +0.000 C 
BRANCH   8  10
ATOM      9  C   LIG    1       -0.019   1.526   0.010  0.00  0.00    +0.000 C 
ATOM     10  C   LIG    1        0.002  -0.004   0.002  0.00  0.00    -0.010 C 
ENDBRANCH   8  10
ENDBRANCH   1   8
TORSDOF 2
ENDMDL
MODEL      143
REMARK  Name = ZINC000096029504
REMARK                            x       y       z     vdW  Elec       q    Type
REMARK                         _______ _______ _______ _____ _____    ______ ____
ROOT
ATOM      1  F   LIG    1        0.002  -0.004   0.002  0.00  0.00    -0.140 F 
ATOM      2  C   LIG    1       -0.016   1.347   0.009  0.00  0.00    +0.150 A 
ATOM      3  C   LIG    1       -1.234   2.033   0.031  0.00  0.00    -0.140 A 
ATOM      4  C   LIG    1       -2.638   1.615   0.048  0.00  0.00    -0.140 A 
ATOM      5  C   LIG    1       -3.380   2.733   0.064  0.00  0.00    +0.220 A 
ATOM      6  N   LIG    1       -2.566   3.833   0.059  0.00  0.00    -0.590 N 
ATOM      7  H   LIG    1       -2.873   4.754   0.068  0.00  0.00    +0.420 HD
ATOM      8  C   LIG    1       -1.246   3.439   0.039  0.00  0.00    +0.120 A 
ATOM      9  C   LIG    1       -0.041   4.134   0.026  0.00  0.00    -0.010 A 
ATOM     10  C   LIG    1        1.151   3.444   0.006  0.00  0.00    +0.070 A 
ATOM     11  C   LIG    1        1.166   2.056   0.002  0.00  0.00    -0.040 A 
ENDROOT
BRANCH   4  12
ATOM     12  C   LIG    1       -3.151   0.198   0.047  0.00  0.00    +0.060 C 
ATOM     13  C   LIG    1       -4.400  -0.005   0.921  0.00  0.00    +0.020 C 
ATOM     14  C   LIG    1       -4.932  -0.925  -0.190  0.00  0.00    +0.010 C 
ATOM     15  C   LIG    1       -4.040  -0.135  -1.163  0.00  0.00    +0.020 C 
ENDBRANCH   4  12
TORSDOF 1
ENDMDL
MODEL      144
REMARK  Name = ZINC000075841075
REMARK                            x       y       z     vdW  Elec       q    Type
REMARK                         _______ _______ _______ _____ _____    ______ ____
ROOT
ATOM      1  F   LIG    1        0.002  -0.004   0.002  0.00  0.00    -0.140 F 
ATOM      2  C   LIG    1       -0.016   1.347   0.009  0.00  0.00    +0.100 A 
ATOM      3  C   LIG    1       -1.224   2.023   0.030  0.00  0.00    -0.020 A 
ATOM      4  C   LIG    1       -1.242   3.405   0.038  0.00  0.00    +0.030 A 
ATOM      5  C   LIG    1       -0.054   4.112   0.025  0.00  0.00    +0.000 A 
ATOM      6  C   LIG    1        1.153   3.438   0.004  0.00  0.00    +0.040 A 
ATOM      7  C   LIG    1        1.173   2.056   0.002  0.00  0.00    -0.110 A 
ENDROOT
BRANCH   7   8
ATOM      8  C   LIG    1        2.489   1.321  -0.021  0.00  0.00    +0.030 C 
ATOM      9  C   LIG    1        3.265   1.704  -1.283  0.00  0.00    +0.020 C 
ATOM     10  C   LIG    1        4.600   0.958  -1.306  0.00  0.00    +0.000 C 
ATOM     11  C   LIG    1        5.418   1.337  -0.070  0.00  0.00    +0.000 C 
ATOM     12  C   LIG    1        4.642   0.955   1.192  0.00  0.00    +0.000 C 
ATOM     13  C   LIG    1        3.306   1.701   1.215  0.00  0.00    +0.020 C 
ENDBRANCH   7   8
TORSDOF 1
ENDMDL
MODEL      145
REMARK  Name = ZINC000096029513
REMARK                            x       y       z     vdW  Elec       q    Type
REMARK                         _______ _______ _______ _____ _____    ______ ____
ROOT
ATOM      1  F   LIG    1        0.002  -0.004   0.002  0.00  0.00    -0.140 F 
ATOM      2  C   LIG    1       -0.016   1.347   0.009  0.00  0.00    +0.080 A 
ATOM      3  C   LIG    1       -1.230   2.029   0.030  0.00  0.00    +0.060 A 
ATOM      4  N   LIG    1       -2.547   1.623   0.047  0.00  0.00    -0.590 N 
ATOM      5  H   LIG    1       -2.845   0.701   0.046  0.00  0.00    +0.420 HD
ATOM      6  C   LIG    1       -3.369   2.716   0.065  0.00  0.00    +0.230 A 
ATOM      7  C   LIG    1       -2.637   3.841   0.060  0.00  0.00    -0.150 A 
ATOM      8  C   LIG    1       -1.229   3.436   0.038  0.00  0.00    -0.080 A 
ATOM      9  C   LIG    1       -0.019   4.132   0.024  0.00  0.00    +0.050 A 
ATOM     10  C   LIG    1        1.161   3.443   0.003  0.00  0.00    +0.010 A 
ATOM     11  C   LIG    1        1.168   2.056   0.002  0.00  0.00    +0.010 A 
ENDROOT
BRANCH   7  12
ATOM     12  C   LIG    1       -3.163   5.253   0.076  0.00  0.00    +0.060 C 
ATOM     13  C   LIG    1       -4.438   5.445  -0.762  0.00  0.00    +0.020 C 
ATOM     14  C   LIG    1       -4.946   6.359   0.365  0.00  0.00    +0.010 C 
ATOM     15  C   LIG    1       -4.020   5.577   1.311  0.00  0.00    +0.020 C 
ENDBRANCH   7  12
TORSDOF 1
ENDMDL
MODEL      146
REMARK  Name = ZINC000095729187
REMARK                            x       y       z     vdW  Elec       q    Type
REMARK                         _______ _______ _______ _____ _____    ______ ____
ROOT
ATOM      1  C   LIG    1        1.334  -2.514  -2.561  0.00  0.00    -0.110 A 
ATOM      2  C   LIG    1        2.705  -2.633  -2.691  0.00  0.00    +0.000 A 
ATOM      3  C   LIG    1        3.251  -3.079  -3.880  0.00  0.00    +0.010 A 
ATOM      4  C   LIG    1        2.425  -3.409  -4.939  0.00  0.00    +0.000 A 
ATOM      5  C   LIG    1        1.054  -3.292  -4.809  0.00  0.00    -0.070 A 
ATOM      6  C   LIG    1        0.508  -2.849  -3.619  0.00  0.00    +0.010 A 
ENDROOT
BRANCH   5   7
ATOM      7  C   LIG    1        0.154  -3.650  -5.963  0.00  0.00    +0.020 C 
ATOM      8  C   LIG    1        0.365  -5.118  -6.338  0.00  0.00    +0.030 C 
ATOM      9  C   LIG    1        0.488  -2.764  -7.165  0.00  0.00    +0.040 C 
ENDBRANCH   5   7
BRANCH   1  10
ATOM     10  C   LIG    1        0.739  -2.027  -1.265  0.00  0.00    +0.260 C 
BRANCH  10  11
ATOM     11  O   LIG    1        1.529  -2.499  -0.172  0.00  0.00    -0.550 OA
ATOM     12  H   LIG    1        2.448  -2.201  -0.193  0.00  0.00    +0.370 HD
ENDBRANCH  10  11
BRANCH  10  13
ATOM     13  C   LIG    1        0.718  -0.497  -1.257  0.00  0.00    -0.010 C 
BRANCH  13  15
ATOM     14  C   LIG    1       -0.019   1.526   0.010  0.00  0.00    +0.010 C 
ATOM     15  C   LIG    1        0.002  -0.004   0.002  0.00  0.00    +0.010 C 
ENDBRANCH  13  15
ENDBRANCH  10  13
ENDBRANCH   1  10
TORSDOF 5
ENDMDL
MODEL      147
REMARK  Name = ZINC000016947490
REMARK                            x       y       z     vdW  Elec       q    Type
REMARK                         _______ _______ _______ _____ _____    ______ ____
ROOT
ATOM      1  F   LIG    1        0.002  -0.004   0.002  0.00  0.00    -0.130 F 
ATOM      2  C   LIG    1       -0.016   1.347   0.009  0.00  0.00    +0.120 A 
ATOM      3  C   LIG    1       -1.221   2.023   0.030  0.00  0.00    -0.010 A 
ATOM      4  C   LIG    1       -1.240   3.407   0.037  0.00  0.00    +0.060 A 
ATOM      5  C   LIG    1       -0.056   4.122   0.024  0.00  0.00    +0.010 A 
ATOM      6  C   LIG    1        1.155   3.459   0.003  0.00  0.00    +0.050 A 
ATOM      7  C   LIG    1        1.183   2.064   0.002  0.00  0.00    -0.060 A 
ENDROOT
BRANCH   7   8
ATOM      8  C   LIG    1        2.477   1.348  -0.020  0.00  0.00    -0.150 A 
ATOM      9  C   LIG    1        2.827   0.348   0.813  0.00  0.00    +0.030 A 
ATOM     10  C   LIG    1        4.089  -0.166   0.599  0.00  0.00    +0.010 A 
ATOM     11  C   LIG    1        4.770   0.404  -0.399  0.00  0.00    -0.040 A 
ATOM     12  S   LIG    1        3.794   1.664  -1.142  0.00  0.00    +0.120 S 
ENDBRANCH   7   8
TORSDOF 1
ENDMDL
MODEL      148
REMARK  Name = ZINC000095729181
REMARK                            x       y       z     vdW  Elec       q    Type
REMARK                         _______ _______ _______ _____ _____    ______ ____
ROOT
ATOM      1  C   LIG    1        1.334  -2.514  -2.561  0.00  0.00    -0.120 A 
ATOM      2  C   LIG    1        2.678  -2.830  -2.629  0.00  0.00    +0.010 A 
ATOM      3  C   LIG    1        3.224  -3.277  -3.818  0.00  0.00    +0.000 A 
ATOM      4  C   LIG    1        2.425  -3.409  -4.939  0.00  0.00    +0.000 A 
ATOM      5  C   LIG    1        1.081  -3.094  -4.870  0.00  0.00    +0.010 A 
ATOM      6  C   LIG    1        0.534  -2.651  -3.681  0.00  0.00    -0.070 A 
ENDROOT
BRANCH   6   7
ATOM      7  C   LIG    1       -0.931  -2.308  -3.606  0.00  0.00    +0.010 C 
ATOM      8  C   LIG    1       -1.763  -3.543  -3.958  0.00  0.00    +0.030 C 
ATOM      9  C   LIG    1       -1.243  -1.185  -4.597  0.00  0.00    +0.040 C 
ENDBRANCH   6   7
BRANCH   1  10
ATOM     10  C   LIG    1        0.739  -2.027  -1.265  0.00  0.00    +0.250 C 
BRANCH  10  11
ATOM     11  O   LIG    1        1.529  -2.499  -0.172  0.00  0.00    -0.550 OA
ATOM     12  H   LIG    1        2.448  -2.201  -0.193  0.00  0.00    +0.370 HD
ENDBRANCH  10  11
BRANCH  10  13
ATOM     13  C   LIG    1        0.718  -0.497  -1.257  0.00  0.00    -0.010 C 
BRANCH  13  15
ATOM     14  C   LIG    1       -0.019   1.526   0.010  0.00  0.00    +0.010 C 
ATOM     15  C   LIG    1        0.002  -0.004   0.002  0.00  0.00    +0.010 C 
ENDBRANCH  13  15
ENDBRANCH  10  13
ENDBRANCH   1  10
TORSDOF 5
ENDMDL
MODEL      149
REMARK  Name = ZINC000001699442
REMARK                            x       y       z     vdW  Elec       q    Type
REMARK                         _______ _______ _______ _____ _____    ______ ____
ROOT
ATOM      1  C   LIG    1       -1.413  -2.063   0.004  0.00  0.00    -0.010 C 
ATOM      2  C   LIG    1       -0.784  -2.572   1.303  0.00  0.00    +0.000 C 
ATOM      3  C   LIG    1       -0.763  -4.102   1.295  0.00  0.00    +0.000 C 
ATOM      4  C   LIG    1       -2.194  -4.631   1.180  0.00  0.00    +0.000 C 
ATOM      5  C   LIG    1       -2.823  -4.122  -0.119  0.00  0.00    +0.000 C 
ATOM      6  C   LIG    1       -2.844  -2.592  -0.110  0.00  0.00    -0.020 C 
ATOM      7  C   LIG    1       -3.473  -2.084  -1.409  0.00  0.00    +0.010 C 
ENDROOT
BRANCH   1   8
ATOM      8  C   LIG    1       -1.433  -0.534   0.013  0.00  0.00    +0.010 C 
BRANCH   8  10
ATOM      9  C   LIG    1       -0.019   1.526   0.010  0.00  0.00    +0.000 C 
ATOM     10  C   LIG    1        0.002  -0.004   0.002  0.00  0.00    -0.010 C 
ENDBRANCH   8  10
ENDBRANCH   1   8
TORSDOF 2
ENDMDL
MODEL      150
REMARK  Name = ZINC000001702998
REMARK                            x       y       z     vdW  Elec       q    Type
REMARK                         _______ _______ _______ _____ _____    ______ ____
ROOT
ATOM      1  C   LIG    1       -0.019   1.526   0.010  0.00  0.00    +0.010 C 
ATOM      2  C   LIG    1        1.417   2.056  -0.000  0.00  0.00    +0.030 C 
ATOM      3  C   LIG    1        2.157   1.549   1.239  0.00  0.00    +0.080 C 
ATOM      4  C   LIG    1        2.175   0.020   1.233  0.00  0.00    +0.010 C 
ATOM      5  S   LIG    1        3.030  -0.569  -0.256  0.00  0.00    -0.210 S 
ATOM      6  C   LIG    1        3.022  -2.369  -0.040  0.00  0.00    +0.090 C 
ATOM      7  C   LIG    1        3.812  -2.750   1.207  0.00  0.00    +0.060 C 
ATOM      8  C   LIG    1        3.043  -2.380   2.470  0.00  0.00    +0.090 C 
ATOM      9  C   LIG    1        0.741  -0.511   1.242  0.00  0.00    +0.030 C 
ATOM     10  S   LIG    1        3.055  -0.582   2.702  0.00  0.00    -0.230 S 
ATOM     11  C   LIG    1        0.002  -0.004   0.002  0.00  0.00    +0.030 C 
ENDROOT
TORSDOF 0
ENDMDL
MODEL      151
REMARK  Name = ZINC000026893381
REMARK                            x       y       z     vdW  Elec       q    Type
REMARK                         _______ _______ _______ _____ _____    ______ ____
ROOT
ATOM      1  C   LIG    1        2.737   0.024  -2.400  0.00  0.00    +0.140 A 
ATOM      2  C   LIG    1        2.038  -0.122  -3.589  0.00  0.00    -0.060 A 
ATOM      3  C   LIG    1        2.697   0.005  -4.796  0.00  0.00    +0.070 A 
ATOM      4  C   LIG    1        4.053   0.278  -4.820  0.00  0.00    -0.080 A 
ATOM      5  C   LIG    1        4.752   0.425  -3.635  0.00  0.00    +0.070 A 
ATOM      6 CL   LIG    1        4.879   0.438  -6.339  0.00  0.00    -0.070 Cl
ATOM      7  C   LIG    1        4.095   0.304  -2.425  0.00  0.00    +0.000 A 
ENDROOT
BRANCH   1   8
ATOM      8  O   LIG    1        2.090  -0.101  -1.210  0.00  0.00    -0.300 OA
BRANCH   8   9
ATOM      9  C   LIG    1        0.672  -0.270  -1.258  0.00  0.00    +0.160 C 
ATOM     10  C   LIG    1        0.341  -1.749  -1.463  0.00  0.00    +0.020 C 
BRANCH   9  12
ATOM     11  C   LIG    1        0.281   1.719   0.203  0.00  0.00    +0.010 C 
ATOM     12  C   LIG    1        0.057   0.213   0.057  0.00  0.00    +0.040 C 
ENDBRANCH   9  12
ENDBRANCH   8   9
ENDBRANCH   1   8
TORSDOF 3
ENDMDL
MODEL      152
REMARK  Name = ZINC000001667910
REMARK                            x       y       z     vdW  Elec       q    Type
REMARK                         _______ _______ _______ _____ _____    ______ ____
ROOT
ATOM      1  C   LIG    1       -0.019   1.527   0.010  0.00  0.00    +0.020 C 
ATOM      2  C   LIG    1        1.423   2.045  -0.001  0.00  0.00    +0.020 C 
ATOM      3  C   LIG    1        2.074   1.756   1.353  0.00  0.00    +0.090 C 
ATOM      4  C   LIG    1        1.871   0.283   1.690  0.00  0.00    -0.100 A 
ATOM      5  C   LIG    1        0.949  -0.482   1.083  0.00  0.00    -0.180 A 
ATOM      6  S   LIG    1        1.006  -2.114   1.730  0.00  0.00    +0.090 S 
ATOM      7  C   LIG    1        2.312  -1.677   2.821  0.00  0.00    -0.180 A 
ATOM      8  C   LIG    1        2.982  -2.617   3.803  0.00  0.00    +0.110 C 
ATOM      9  C   LIG    1        4.304  -1.991   4.256  0.00  0.00    +0.020 C 
ATOM     10  C   LIG    1        4.047  -0.544   4.691  0.00  0.00    +0.020 C 
ATOM     11  C   LIG    1        3.731   0.305   3.458  0.00  0.00    +0.090 C 
ATOM     12  C   LIG    1        2.631  -0.383   2.658  0.00  0.00    -0.100 A 
ATOM     13  C   LIG    1        0.002  -0.004   0.002  0.00  0.00    +0.110 C 
ENDROOT
TORSDOF 0
ENDMDL
MODEL      153
REMARK  Name = ZINC000031361087
REMARK                            x       y       z     vdW  Elec       q    Type
REMARK                         _______ _______ _______ _____ _____    ______ ____
ROOT
ATOM      1  C   LIG    1        1.626  -2.512  -3.036  0.00  0.00    +0.000 C 
ATOM      2  C   LIG    1        0.464  -1.897  -3.818  0.00  0.00    -0.020 C 
ATOM      3  C   LIG    1        0.539  -2.344  -5.280  0.00  0.00    +0.010 C 
ATOM      4  C   LIG    1        0.452  -3.869  -5.351  0.00  0.00    +0.000 C 
ATOM      5  C   LIG    1        1.614  -4.484  -4.569  0.00  0.00    +0.010 C 
ATOM      6  C   LIG    1        0.552  -0.371  -3.747  0.00  0.00    +0.020 C 
ATOM      7  C   LIG    1        1.538  -4.037  -3.108  0.00  0.00    -0.060 C 
ATOM      8  C   LIG    1        0.212  -4.501  -2.501  0.00  0.00    +0.020 C 
ATOM      9  C   LIG    1        2.700  -4.653  -2.325  0.00  0.00    +0.010 C 
ENDROOT
BRANCH   1  10
ATOM     10  C   LIG    1        1.550  -2.065  -1.575  0.00  0.00    +0.020 C 
BRANCH  10  11
ATOM     11  C   LIG    1        2.132  -0.656  -1.442  0.00  0.00    -0.020 C 
BRANCH  11  13
ATOM     12  C   LIG    1        2.607   1.207   0.154  0.00  0.00    -0.010 C 
ATOM     13  C   LIG    1        2.143  -0.246   0.033  0.00  0.00    +0.190 C 
BRANCH  13  14
ATOM     14  O   LIG    1        3.037  -1.094   0.756  0.00  0.00    -0.560 OA
ATOM     15  H   LIG    1        3.952  -1.060   0.443  0.00  0.00    +0.370 HD
ENDBRANCH  13  14
ENDBRANCH  11  13
ENDBRANCH  10  11
ENDBRANCH   1  10
TORSDOF 4
ENDMDL
MODEL      154
REMARK  Name = ZINC000032008302
REMARK                            x       y       z     vdW  Elec       q    Type
REMARK                         _______ _______ _______ _____ _____    ______ ____
ROOT
ATOM      1  C   LIG    1        0.067   1.497  -0.201  0.00  0.00    +0.090 C 
ATOM      2  C   LIG    1        0.044  -0.006  -0.099  0.00  0.00    -0.110 A 
ATOM      3  C   LIG    1       -0.222  -0.770  -1.222  0.00  0.00    +0.050 A 
ATOM      4  C   LIG    1       -0.245  -2.152  -1.139  0.00  0.00    +0.000 A 
ATOM      5  C   LIG    1       -0.003  -2.778   0.065  0.00  0.00    -0.030 A 
ATOM      6  C   LIG    1        0.267  -2.013   1.205  0.00  0.00    -0.170 A 
ATOM      7  C   LIG    1       -0.029  -4.282   0.154  0.00  0.00    +0.110 C 
ATOM      8  C   LIG    1        0.294  -0.618   1.111  0.00  0.00    +0.060 A 
ENDROOT
BRANCH   6   9
ATOM      9  C   LIG    1        0.527  -2.673   2.494  0.00  0.00    +0.390 C 
ATOM     10  O   LIG    1        0.611  -3.881   2.551  0.00  0.00    -0.440 OA
BRANCH   9  11
ATOM     11  C   LIG    1        0.688  -1.847   3.744  0.00  0.00    +0.040 C 
BRANCH  11  12
ATOM     12  C   LIG    1        0.948  -2.771   4.936  0.00  0.00    -0.010 C 
ATOM     13  C   LIG    1       -0.285  -3.643   5.183  0.00  0.00    +0.010 C 
ATOM     14  C   LIG    1        1.235  -1.929   6.181  0.00  0.00    +0.020 C 
ENDBRANCH  11  12
ENDBRANCH   9  11
ENDBRANCH   6   9
TORSDOF 3
ENDMDL
MODEL      155
REMARK  Name = ZINC000032008300
REMARK                            x       y       z     vdW  Elec       q    Type
REMARK                         _______ _______ _______ _____ _____    ______ ____
ROOT
ATOM      1  C   LIG    1       -0.018   1.503   0.010  0.00  0.00    +0.090 C 
ATOM      2  C   LIG    1        0.002  -0.004   0.002  0.00  0.00    -0.050 A 
ATOM      3  C   LIG    1        0.006  -0.686  -1.202  0.00  0.00    +0.000 A 
ATOM      4  C   LIG    1        0.024  -2.065  -1.218  0.00  0.00    +0.050 A 
ATOM      5  C   LIG    1        0.039  -2.774  -0.013  0.00  0.00    -0.170 A 
ATOM      6  C   LIG    1        0.036  -2.078   1.200  0.00  0.00    +0.070 A 
ATOM      7  C   LIG    1        0.023  -0.699   1.199  0.00  0.00    -0.100 A 
ATOM      8  C   LIG    1        0.019   0.053   2.505  0.00  0.00    +0.090 C 
ENDROOT
BRANCH   5   9
ATOM      9  C   LIG    1        0.059  -4.245  -0.021  0.00  0.00    +0.400 C 
ATOM     10  O   LIG    1        0.072  -4.857   1.025  0.00  0.00    -0.450 OA
BRANCH   9  11
ATOM     11  C   LIG    1        0.063  -4.992  -1.331  0.00  0.00    +0.040 C 
BRANCH  11  12
ATOM     12  C   LIG    1        0.085  -6.497  -1.059  0.00  0.00    -0.010 C 
ATOM     13  C   LIG    1        0.215  -7.252  -2.384  0.00  0.00    +0.030 C 
ATOM     14  C   LIG    1       -1.214  -6.909  -0.363  0.00  0.00    +0.010 C 
ENDBRANCH  11  12
ENDBRANCH   9  11
ENDBRANCH   5   9
TORSDOF 3
ENDMDL
MODEL      156
REMARK  Name = ZINC000195815008
REMARK                            x       y       z     vdW  Elec       q    Type
REMARK                         _______ _______ _______ _____ _____    ______ ____
ROOT
ATOM      1 SI   LIG    1        0.749  -2.338  -1.417  0.00  0.00    +0.610 Si
ENDROOT
BRANCH   1   2
ATOM      2  C   LIG    1        0.780  -0.482  -1.262  0.00  0.00    -0.220 C 
BRANCH   2   4
ATOM      3  C   LIG    1        2.257   1.524  -1.076  0.00  0.00    +0.000 C 
ATOM      4  C   LIG    1        2.228  -0.004  -1.139  0.00  0.00    +0.010 C 
ENDBRANCH   2   4
ENDBRANCH   1   2
BRANCH   1   5
ATOM      5  C   LIG    1        1.513  -3.117   0.093  0.00  0.00    -0.220 C 
BRANCH   5   6
ATOM      6  C   LIG    1        0.651  -2.807   1.318  0.00  0.00    +0.010 C 
ATOM      7  C   LIG    1        1.217  -3.537   2.538  0.00  0.00    +0.000 C 
ENDBRANCH   5   6
ENDBRANCH   1   5
BRANCH   1   8
ATOM      8  C   LIG    1        1.677  -2.865  -2.944  0.00  0.00    -0.220 C 
BRANCH   8   9
ATOM      9  C   LIG    1        1.040  -2.219  -4.176  0.00  0.00    +0.010 C 
ATOM     10  C   LIG    1        1.802  -2.652  -5.431  0.00  0.00    +0.000 C 
ENDBRANCH   8   9
ENDBRANCH   1   8
TORSDOF 6
ENDMDL
MODEL      157
REMARK  Name = ZINC000032009646
REMARK                            x       y       z     vdW  Elec       q    Type
REMARK                         _______ _______ _______ _____ _____    ______ ____
ROOT
ATOM      1  C   LIG    1       -0.194   1.495   0.018  0.00  0.00    +0.090 C 
ATOM      2  C   LIG    1       -0.081  -0.008   0.006  0.00  0.00    -0.090 A 
ATOM      3  C   LIG    1       -0.210  -0.700  -1.185  0.00  0.00    +0.010 A 
ATOM      4  C   LIG    1       -0.107  -2.079  -1.204  0.00  0.00    +0.000 A 
ATOM      5  C   LIG    1        0.124  -2.773  -0.033  0.00  0.00    -0.080 A 
ATOM      6  C   LIG    1        0.254  -2.080   1.169  0.00  0.00    -0.050 A 
ATOM      7  C   LIG    1        0.235  -4.275  -0.055  0.00  0.00    +0.090 C 
ATOM      8  C   LIG    1        0.156  -0.691   1.182  0.00  0.00    +0.020 A 
ENDROOT
BRANCH   6   9
ATOM      9  C   LIG    1        0.503  -2.820   2.431  0.00  0.00    -0.050 A 
ATOM     10  C   LIG    1        1.599  -3.675   2.535  0.00  0.00    +0.040 A 
ATOM     11  C   LIG    1        1.827  -4.361   3.709  0.00  0.00    -0.010 A 
ATOM     12  C   LIG    1        0.967  -4.202   4.787  0.00  0.00    +0.110 A 
ATOM     13  C   LIG    1       -0.126  -3.351   4.686  0.00  0.00    -0.010 A 
ATOM     14  C   LIG    1       -0.356  -2.658   3.517  0.00  0.00    +0.040 A 
BRANCH  12  15
ATOM     15  O   LIG    1        1.195  -4.879   5.943  0.00  0.00    -0.500 OA
ATOM     16  H   LIG    1        1.755  -4.405   6.572  0.00  0.00    +0.390 HD
ENDBRANCH  12  15
ENDBRANCH   6   9
TORSDOF 2
ENDMDL
MODEL      158
REMARK  Name = ZINC000032099608
REMARK                            x       y       z     vdW  Elec       q    Type
REMARK                         _______ _______ _______ _____ _____    ______ ____
ROOT
ATOM      1  C   LIG    1       -0.018   1.503   0.010  0.00  0.00    +0.130 C 
ATOM      2  C   LIG    1        0.002  -0.004   0.002  0.00  0.00    +0.160 A 
ATOM      3  C   LIG    1        0.005  -0.675  -1.218  0.00  0.00    -0.030 A 
ATOM      4  C   LIG    1        0.024  -2.041  -1.245  0.00  0.00    +0.090 A 
ATOM      5  C   LIG    1        0.040  -2.729  -0.018  0.00  0.00    -0.110 A 
ATOM      6  C   LIG    1        0.060  -4.133   0.033  0.00  0.00    +0.050 A 
ATOM      7  C   LIG    1        0.075  -4.762   1.240  0.00  0.00    +0.030 A 
ATOM      8  C   LIG    1        0.071  -4.031   2.428  0.00  0.00    -0.020 A 
ATOM      9  C   LIG    1        0.052  -2.670   2.415  0.00  0.00    -0.050 A 
ATOM     10  C   LIG    1        0.048  -1.901   3.711  0.00  0.00    +0.120 C 
ATOM     11 CL   LIG    1        0.091  -4.871   3.947  0.00  0.00    -0.060 Cl
ATOM     12  C   LIG    1        0.035  -1.984   1.188  0.00  0.00    +0.140 A 
ATOM     13  N   LIG    1        0.022  -0.648   1.144  0.00  0.00    -0.470 NA
ENDROOT
TORSDOF 0
ENDMDL
MODEL      159
REMARK  Name = ZINC000032135461
REMARK                            x       y       z     vdW  Elec       q    Type
REMARK                         _______ _______ _______ _____ _____    ______ ____
ROOT
ATOM      1  S   LIG    1        1.527  -4.361   2.463  0.00  0.00    -0.120 S 
ENDROOT
BRANCH   1   2
ATOM      2  C   LIG    1        2.405  -4.754   3.939  0.00  0.00    -0.080 A 
ATOM      3  C   LIG    1        2.869  -3.737   4.765  0.00  0.00    -0.020 A 
ATOM      4  C   LIG    1        3.557  -4.048   5.921  0.00  0.00    +0.030 A 
ATOM      5  C   LIG    1        3.784  -5.371   6.258  0.00  0.00    +0.000 A 
ATOM      6  C   LIG    1        3.325  -6.385   5.438  0.00  0.00    +0.030 A 
ATOM      7  C   LIG    1        2.631  -6.081   4.283  0.00  0.00    +0.030 A 
ENDBRANCH   1   2
BRANCH   1   8
ATOM      8  C   LIG    1        1.503  -2.548   2.473  0.00  0.00    +0.070 C 
BRANCH   8   9
ATOM      9  C   LIG    1        0.763  -2.041   1.233  0.00  0.00    +0.030 C 
BRANCH   9  10
ATOM     10  C   LIG    1        0.742  -0.511   1.242  0.00  0.00    +0.000 C 
BRANCH  10  12
ATOM     11  C   LIG    1       -0.019   1.526   0.010  0.00  0.00    +0.010 C 
ATOM     12  C   LIG    1        0.002  -0.004   0.002  0.00  0.00    -0.010 C 
ENDBRANCH  10  12
ENDBRANCH   9  10
ENDBRANCH   8   9
ENDBRANCH   1   8
TORSDOF 5
ENDMDL
MODEL      160
REMARK  Name = ZINC000088187503
REMARK                            x       y       z     vdW  Elec       q    Type
REMARK                         _______ _______ _______ _____ _____    ______ ____
ROOT
ATOM      1  C   LIG    1       -1.361  -0.708   0.090  0.00  0.00    -0.040 A 
ATOM      2  C   LIG    1       -2.176  -0.473   1.179  0.00  0.00    +0.010 A 
ATOM      3  C   LIG    1       -3.525  -0.771   1.113  0.00  0.00    +0.010 A 
ATOM      4  C   LIG    1       -4.065  -1.305  -0.043  0.00  0.00    +0.000 A 
ATOM      5  C   LIG    1       -3.259  -1.544  -1.139  0.00  0.00    +0.020 A 
ATOM      6  C   LIG    1       -1.901  -1.240  -1.080  0.00  0.00    -0.050 A 
ENDROOT
BRANCH   6   7
ATOM      7  C   LIG    1       -1.030  -1.494  -2.253  0.00  0.00    +0.170 A 
ATOM      8  C   LIG    1       -1.067  -2.734  -2.886  0.00  0.00    -0.020 A 
ATOM      9  C   LIG    1       -0.249  -2.957  -3.980  0.00  0.00    +0.070 A 
ATOM     10  C   LIG    1        0.581  -1.929  -4.406  0.00  0.00    -0.030 A 
ATOM     11  C   LIG    1        0.568  -0.723  -3.731  0.00  0.00    +0.260 A 
ATOM     12  N   LIG    1       -0.225  -0.536  -2.695  0.00  0.00    -0.470 NA
ENDBRANCH   6   7
BRANCH   1  14
ATOM     13  C   LIG    1        0.290   1.130   0.305  0.00  0.00    +0.030 C 
ATOM     14  C   LIG    1        0.109  -0.383   0.163  0.00  0.00    +0.030 C 
ATOM     15  C   LIG    1        0.727  -1.086   1.373  0.00  0.00    +0.020 C 
ENDBRANCH   1  14
TORSDOF 2
ENDMDL
MODEL      161
REMARK  Name = ZINC000090191420
REMARK                            x       y       z     vdW  Elec       q    Type
REMARK                         _______ _______ _______ _____ _____    ______ ____
ROOT
ATOM      1  C   LIG    1        0.739  -2.004  -1.265  0.00  0.00    -0.090 A 
ATOM      2  C   LIG    1        1.789  -2.683  -0.674  0.00  0.00    +0.030 A 
ATOM      3  C   LIG    1        1.811  -4.064  -0.680  0.00  0.00    +0.030 A 
ATOM      4  C   LIG    1        0.776  -4.771  -1.280  0.00  0.00    -0.090 A 
ATOM      5  C   LIG    1       -0.278  -4.086  -1.872  0.00  0.00    -0.010 A 
ATOM      6  C   LIG    1       -0.296  -2.705  -1.858  0.00  0.00    +0.020 A 
ENDROOT
BRANCH   1   7
ATOM      7  C   LIG    1        0.718  -0.497  -1.257  0.00  0.00    +0.060 C 
BRANCH   7   9
ATOM      8  C   LIG    1       -0.019   1.526   0.010  0.00  0.00    +0.020 C 
ATOM      9  C   LIG    1        0.002  -0.004   0.002  0.00  0.00    +0.000 C 
ENDBRANCH   7   9
ENDBRANCH   1   7
BRANCH   4  10
ATOM     10  S   LIG    1        0.799  -6.533  -1.288  0.00  0.00    -0.120 S 
BRANCH  10  11
ATOM     11  C   LIG    1       -0.730  -6.957  -2.167  0.00  0.00    +0.070 C 
ATOM     12  C   LIG    1       -0.860  -8.479  -2.260  0.00  0.00    +0.080 C 
ENDBRANCH  10  11
ENDBRANCH   4  10
TORSDOF 4
ENDMDL
MODEL      162
REMARK  Name = ZINC000095728203
REMARK                            x       y       z     vdW  Elec       q    Type
REMARK                         _______ _______ _______ _____ _____    ______ ____
ROOT
ATOM      1  C   LIG    1        0.739  -2.004  -1.265  0.00  0.00    -0.070 A 
ATOM      2  C   LIG    1        1.790  -2.682  -0.674  0.00  0.00    +0.010 A 
ATOM      3  C   LIG    1        1.813  -4.062  -0.678  0.00  0.00    +0.050 A 
ATOM      4  C   LIG    1        0.776  -4.773  -1.280  0.00  0.00    -0.060 A 
ATOM      5  C   LIG    1       -0.280  -4.084  -1.873  0.00  0.00    +0.030 A 
ATOM      6  C   LIG    1       -0.296  -2.704  -1.859  0.00  0.00    +0.010 A 
ENDROOT
BRANCH   4   7
ATOM      7  C   LIG    1        0.795  -6.256  -1.287  0.00  0.00    +0.170 A 
ATOM      8  C   LIG    1       -0.243  -6.957  -1.895  0.00  0.00    -0.030 A 
ATOM      9  C   LIG    1       -0.211  -8.341  -1.894  0.00  0.00    +0.070 A 
ATOM     10  C   LIG    1        0.860  -8.979  -1.284  0.00  0.00    -0.040 A 
ATOM     11  C   LIG    1        1.857  -8.220  -0.699  0.00  0.00    +0.270 A 
ATOM     12  N   LIG    1        1.804  -6.903  -0.719  0.00  0.00    -0.480 NA
ENDBRANCH   4   7
BRANCH   1  13
ATOM     13  C   LIG    1        0.718  -0.497  -1.257  0.00  0.00    +0.060 C 
BRANCH  13  15
ATOM     14  C   LIG    1       -0.019   1.526   0.010  0.00  0.00    +0.010 C 
ATOM     15  C   LIG    1        0.002  -0.004   0.002  0.00  0.00    +0.000 C 
ENDBRANCH  13  15
ENDBRANCH   1  13
TORSDOF 3
ENDMDL
MODEL      163
REMARK  Name = ZINC000062720697
REMARK                            x       y       z     vdW  Elec       q    Type
REMARK                         _______ _______ _______ _____ _____    ______ ____
ROOT
ATOM      1  C   LIG    1       -0.544  -4.130   0.969  0.00  0.00    -0.060 A 
ATOM      2  C   LIG    1       -0.506  -4.661   2.259  0.00  0.00    +0.040 A 
ATOM      3  C   LIG    1       -0.638  -6.020   2.447  0.00  0.00    -0.010 A 
ATOM      4  C   LIG    1       -0.807  -6.861   1.354  0.00  0.00    +0.100 A 
ATOM      5  C   LIG    1       -0.844  -6.336   0.069  0.00  0.00    -0.010 A 
ATOM      6  C   LIG    1       -0.719  -4.977  -0.127  0.00  0.00    +0.040 A 
ENDROOT
BRANCH   1  11
ATOM      7  C   LIG    1       -0.019   1.526   0.010  0.00  0.00    +0.030 C 
ATOM      8  C   LIG    1        0.002  -0.004   0.002  0.00  0.00    -0.020 C 
ATOM      9  C   LIG    1       -1.432  -0.538   0.023  0.00  0.00    +0.070 C 
ATOM     10  C   LIG    1       -1.429  -2.017   0.275  0.00  0.00    -0.030 C 
ATOM     11  C   LIG    1       -0.404  -2.673   0.763  0.00  0.00    -0.090 C 
ATOM     12  C   LIG    1        0.904  -2.031   1.124  0.00  0.00    +0.060 C 
ATOM     13  C   LIG    1        0.735  -0.516   1.248  0.00  0.00    +0.020 C 
ENDBRANCH   1  11
BRANCH   4  14
ATOM     14  O   LIG    1       -0.936  -8.200   1.544  0.00  0.00    -0.500 OA
ATOM     15  H   LIG    1       -1.850  -8.494   1.662  0.00  0.00    +0.390 HD
ENDBRANCH   4  14
TORSDOF 2
ENDMDL
MODEL      164
REMARK  Name = ZINC000001689943
REMARK                            x       y       z     vdW  Elec       q    Type
REMARK                         _______ _______ _______ _____ _____    ______ ____
ROOT
ATOM      1  C   LIG    1       -1.413  -2.041   0.005  0.00  0.00    -0.110 A 
ATOM      2  C   LIG    1       -1.513  -2.727  -1.190  0.00  0.00    +0.010 A 
ATOM      3  C   LIG    1       -1.495  -4.109  -1.198  0.00  0.00    +0.000 A 
ATOM      4  C   LIG    1       -1.376  -4.808  -0.012  0.00  0.00    -0.070 A 
ATOM      5  C   LIG    1       -1.275  -4.127   1.186  0.00  0.00    -0.100 A 
ATOM      6  C   LIG    1       -1.356  -6.315  -0.024  0.00  0.00    +0.090 C 
ATOM      7  C   LIG    1       -1.287  -2.740   1.196  0.00  0.00    +0.110 A 
ENDROOT
BRANCH   7   8
ATOM      8  O   LIG    1       -1.188  -2.067   2.373  0.00  0.00    -0.490 OA
ATOM      9  H   LIG    1       -0.279  -1.864   2.634  0.00  0.00    +0.390 HD
ENDBRANCH   7   8
BRANCH   1  10
ATOM     10  C   LIG    1       -1.433  -0.534   0.013  0.00  0.00    +0.070 C 
BRANCH  10  12
ATOM     11  C   LIG    1       -0.019   1.526   0.010  0.00  0.00    +0.020 C 
ATOM     12  C   LIG    1        0.002  -0.004   0.002  0.00  0.00    +0.000 C 
ENDBRANCH  10  12
ENDBRANCH   1  10
BRANCH   5  13
ATOM     13  C   LIG    1       -1.144  -4.889   2.479  0.00  0.00    +0.080 C 
BRANCH  13  14
ATOM     14  C   LIG    1        0.336  -5.128   2.784  0.00  0.00    +0.000 C 
ATOM     15  C   LIG    1        0.469  -5.902   4.097  0.00  0.00    +0.020 C 
ENDBRANCH  13  14
ENDBRANCH   5  13
TORSDOF 5
ENDMDL
MODEL      165
REMARK  Name = ZINC000062701910
REMARK                            x       y       z     vdW  Elec       q    Type
REMARK                         _______ _______ _______ _____ _____    ______ ____
ROOT
ATOM      1  C   LIG    1        0.002  -0.004   0.002  0.00  0.00    +0.120 A 
ATOM      2  C   LIG    1        0.006  -0.692  -1.200  0.00  0.00    +0.010 A 
ATOM      3  C   LIG    1        0.024  -2.075  -1.207  0.00  0.00    +0.050 A 
ATOM      4  C   LIG    1        0.039  -2.780  -0.015  0.00  0.00    -0.040 A 
ATOM      5  C   LIG    1        0.036  -2.108   1.191  0.00  0.00    +0.060 A 
ATOM      6 CL   LIG    1        0.061  -4.516  -0.038  0.00  0.00    -0.060 Cl
ATOM      7  C   LIG    1        0.023  -0.713   1.209  0.00  0.00    -0.050 A 
ENDROOT
BRANCH   7   8
ATOM      8  C   LIG    1        0.021   0.012   2.496  0.00  0.00    -0.100 C 
ATOM      9  C   LIG    1        1.067   0.641   3.006  0.00  0.00    -0.030 C 
ATOM     10  C   LIG    1        0.719   1.276   4.332  0.00  0.00    +0.050 C 
ATOM     11  C   LIG    1       -0.827   1.299   4.365  0.00  0.00    +0.030 C 
ATOM     12  C   LIG    1       -1.179   0.142   3.406  0.00  0.00    +0.060 C 
ENDBRANCH   7   8
BRANCH   1  13
ATOM     13  O   LIG    1       -0.016   1.354   0.009  0.00  0.00    -0.490 OA
ATOM     14  H   LIG    1        0.862   1.760   0.003  0.00  0.00    +0.390 HD
ENDBRANCH   1  13
TORSDOF 2
ENDMDL
MODEL      166
REMARK  Name = ZINC000064220312
REMARK                            x       y       z     vdW  Elec       q    Type
REMARK                         _______ _______ _______ _____ _____    ______ ____
ROOT
ATOM      1  C   LIG    1       -0.733   1.888   1.268  0.00  0.00    +0.010 C 
ATOM      2  C   LIG    1        0.007   1.381   2.508  0.00  0.00    +0.030 C 
ATOM      3  C   LIG    1       -0.709   1.875   3.767  0.00  0.00    +0.020 C 
ATOM      4  C   LIG    1       -0.730   3.405   3.775  0.00  0.00    +0.020 C 
ATOM      5  C   LIG    1       -1.470   3.912   2.536  0.00  0.00    +0.020 C 
ATOM      6  C   LIG    1       -0.754   3.418   1.277  0.00  0.00    +0.040 C 
ENDROOT
BRANCH   1   8
ATOM      7  F   LIG    1        0.002  -0.004   0.002  0.00  0.00    -0.150 F 
ATOM      8  C   LIG    1       -0.017   1.395   0.010  0.00  0.00    +0.250 C 
ATOM      9 CL   LIG    1       -0.889   1.992  -1.451  0.00  0.00    -0.110 Cl
ATOM     10 CL   LIG    1        1.675   2.019  -0.003  0.00  0.00    -0.110 Cl
ENDBRANCH   1   8
TORSDOF 1
ENDMDL
MODEL      167
REMARK  Name = ZINC000066367963
REMARK                            x       y       z     vdW  Elec       q    Type
REMARK                         _______ _______ _______ _____ _____    ______ ____
ROOT
ATOM      1  C   LIG    1        1.292  -0.726  -0.014  0.00  0.00    -0.030 A 
ATOM      2  C   LIG    1        2.492  -0.014  -0.016  0.00  0.00    +0.030 A 
ATOM      3  C   LIG    1        3.695  -0.694  -0.031  0.00  0.00    -0.020 A 
ATOM      4  C   LIG    1        3.710  -2.078  -0.043  0.00  0.00    +0.040 A 
ATOM      5  C   LIG    1        2.522  -2.789  -0.042  0.00  0.00    -0.020 A 
ATOM      6 CL   LIG    1        2.552  -4.525  -0.058  0.00  0.00    -0.050 Cl
ATOM      7 CL   LIG    1        5.189   0.189  -0.033  0.00  0.00    -0.050 Cl
ATOM      8  C   LIG    1        1.314  -2.121  -0.022  0.00  0.00    +0.040 A 
ENDROOT
BRANCH   1  10
ATOM      9  C   LIG    1       -0.016   1.321   0.009  0.00  0.00    +0.050 C 
ATOM     10  C   LIG    1        0.002  -0.004   0.002  0.00  0.00    +0.000 C 
ENDBRANCH   1  10
TORSDOF 1
ENDMDL
MODEL      168
REMARK  Name = ZINC000066377673
REMARK                            x       y       z     vdW  Elec       q    Type
REMARK                         _______ _______ _______ _____ _____    ______ ____
ROOT
ATOM      1 BR   LIG    1        0.002  -0.004   0.002  0.00  0.00    -0.070 Br
ATOM      2  C   LIG    1       -0.024   1.887   0.012  0.00  0.00    -0.120 C 
ATOM      3  C   LIG    1       -1.163   2.549   0.032  0.00  0.00    +0.020 C 
ATOM      4  C   LIG    1       -1.077   4.052   0.046  0.00  0.00    +0.060 C 
ATOM      5  C   LIG    1       -0.930   4.642  -1.319  0.00  0.00    +0.000 C 
ATOM      6  C   LIG    1        0.449   4.622  -1.944  0.00  0.00    +0.000 C 
ATOM      7  C   LIG    1        0.812   3.200  -2.404  0.00  0.00    +0.010 C 
ATOM      8  C   LIG    1        1.855   2.634  -1.407  0.00  0.00    +0.020 C 
ATOM      9  C   LIG    1        1.259   2.680   0.004  0.00  0.00    +0.080 C 
ENDROOT
TORSDOF 0
ENDMDL
MODEL      169
REMARK  Name = ZINC000033947723
REMARK                            x       y       z     vdW  Elec       q    Type
REMARK                         _______ _______ _______ _____ _____    ______ ____
ROOT
ATOM      1  C   LIG    1       -0.018   1.503   0.010  0.00  0.00    +0.090 C 
ATOM      2  C   LIG    1        0.002  -0.004   0.002  0.00  0.00    -0.090 A 
ATOM      3  C   LIG    1        0.006  -0.682  -1.198  0.00  0.00    +0.010 A 
ATOM      4  C   LIG    1        0.023  -2.065  -1.209  0.00  0.00    -0.010 A 
ATOM      5  C   LIG    1        0.034  -2.763  -0.018  0.00  0.00    +0.010 A 
ATOM      6  C   LIG    1        0.029  -2.088   1.192  0.00  0.00    -0.120 A 
ATOM      7  C   LIG    1        0.033  -2.903   2.461  0.00  0.00    +0.030 C 
ATOM      8  C   LIG    1        1.045  -4.044   2.337  0.00  0.00    +0.040 C 
ATOM      9  C   LIG    1        0.412  -2.014   3.645  0.00  0.00    +0.010 C 
ATOM     10  C   LIG    1       -0.412  -0.724   3.555  0.00  0.00    +0.110 C 
ATOM     11  C   LIG    1       -1.896  -1.068   3.404  0.00  0.00    +0.040 C 
ATOM     12  C   LIG    1       -0.205   0.108   4.823  0.00  0.00    +0.060 C 
ATOM     13  N   LIG    1        0.036   0.040   2.389  0.00  0.00    -0.630 N 
ATOM     14  H   LIG    1        0.946   0.445   2.550  0.00  0.00    +0.360 HD
ATOM     15  C   LIG    1        0.023  -0.704   1.210  0.00  0.00    +0.120 A 
ENDROOT
TORSDOF 0
ENDMDL
MODEL      170
REMARK  Name = ZINC000002388315
REMARK                            x       y       z     vdW  Elec       q    Type
REMARK                         _______ _______ _______ _____ _____    ______ ____
ROOT
ATOM      1  C   LIG    1        0.762  -2.018   1.233  0.00  0.00    -0.080 A 
ATOM      2  C   LIG    1       -0.275  -2.721   1.841  0.00  0.00    +0.010 A 
ATOM      3  C   LIG    1       -0.287  -4.083   1.851  0.00  0.00    +0.030 A 
ATOM      4  C   LIG    1        0.761  -4.792   1.241  0.00  0.00    -0.060 A 
ATOM      5  C   LIG    1        0.783  -6.197   1.231  0.00  0.00    +0.020 A 
ATOM      6  C   LIG    1        1.815  -6.850   0.629  0.00  0.00    +0.000 A 
ATOM      7  C   LIG    1        2.853  -6.146   0.022  0.00  0.00    +0.000 A 
ATOM      8  C   LIG    1        2.865  -4.785   0.012  0.00  0.00    +0.020 A 
ATOM      9  C   LIG    1        1.817  -4.076   0.623  0.00  0.00    -0.050 A 
ATOM     10  C   LIG    1        1.792  -2.671   0.627  0.00  0.00    +0.020 A 
ENDROOT
BRANCH   1  11
ATOM     11  C   LIG    1        0.742  -0.511   1.242  0.00  0.00    +0.060 C 
BRANCH  11  13
ATOM     12  C   LIG    1       -0.019   1.526   0.010  0.00  0.00    +0.010 C 
ATOM     13  C   LIG    1        0.002  -0.004   0.002  0.00  0.00    +0.000 C 
ENDBRANCH  11  13
ENDBRANCH   1  11
TORSDOF 2
ENDMDL
MODEL      171
REMARK  Name = ZINC000072099270
REMARK                            x       y       z     vdW  Elec       q    Type
REMARK                         _______ _______ _______ _____ _____    ______ ____
ROOT
ATOM      1  C   LIG    1       -1.475  -2.049  -0.033  0.00  0.00    -0.050 C 
ATOM      2  C   LIG    1       -1.962  -2.708   0.989  0.00  0.00    -0.050 C 
ENDROOT
BRANCH   1   3
ATOM      3  C   LIG    1       -1.513  -0.542  -0.044  0.00  0.00    +0.050 C 
BRANCH   3   5
ATOM      4  C   LIG    1       -0.151   1.531  -0.342  0.00  0.00    +0.000 C 
ATOM      5  C   LIG    1       -0.112   0.002  -0.330  0.00  0.00    +0.000 C 
ENDBRANCH   3   5
ENDBRANCH   1   3
BRANCH   2   6
ATOM      6  C   LIG    1       -2.711  -1.975   2.071  0.00  0.00    +0.050 C 
BRANCH   6   7
ATOM      7  C   LIG    1       -4.081  -2.626   2.274  0.00  0.00    +0.010 C 
BRANCH   7   8
ATOM      8  C   LIG    1       -4.842  -1.882   3.373  0.00  0.00    -0.010 C 
ATOM      9  C   LIG    1       -6.212  -2.533   3.575  0.00  0.00    +0.000 C 
ENDBRANCH   7   8
ENDBRANCH   6   7
ENDBRANCH   2   6
TORSDOF 5
ENDMDL
MODEL      172
REMARK  Name = ZINC000034080184
REMARK                            x       y       z     vdW  Elec       q    Type
REMARK                         _______ _______ _______ _____ _____    ______ ____
ROOT
ATOM      1  C   LIG    1       -0.031  -0.600   2.303  0.00  0.00    +0.130 A 
ATOM      2  C   LIG    1       -1.400  -0.376   2.286  0.00  0.00    -0.080 A 
ATOM      3  C   LIG    1       -2.134  -0.501   3.449  0.00  0.00    +0.030 A 
ATOM      4  C   LIG    1       -1.505  -0.849   4.631  0.00  0.00    -0.040 A 
ATOM      5  C   LIG    1       -0.141  -1.071   4.651  0.00  0.00    +0.050 A 
ATOM      6  C   LIG    1        0.597  -0.954   3.489  0.00  0.00    -0.110 A 
ENDROOT
BRANCH   6   7
ATOM      7  C   LIG    1        2.084  -1.197   3.511  0.00  0.00    +0.030 C 
ATOM      8  C   LIG    1        2.359  -2.627   3.980  0.00  0.00    +0.030 C 
ATOM      9  C   LIG    1        2.748  -0.208   4.472  0.00  0.00    +0.030 C 
ENDBRANCH   6   7
BRANCH   1  10
ATOM     10  O   LIG    1        0.693  -0.477   1.160  0.00  0.00    -0.310 OA
BRANCH  10  12
ATOM     11  C   LIG    1       -0.294   1.265  -0.193  0.00  0.00    +0.020 C 
ATOM     12  C   LIG    1       -0.034  -0.235  -0.046  0.00  0.00    +0.150 C 
ATOM     13  C   LIG    1        0.782  -0.731  -1.242  0.00  0.00    +0.060 C 
ENDBRANCH  10  12
ENDBRANCH   1  10
TORSDOF 3
ENDMDL
MODEL      173
REMARK  Name = ZINC000072225687
REMARK                            x       y       z     vdW  Elec       q    Type
REMARK                         _______ _______ _______ _____ _____    ______ ____
ROOT
ATOM      1  C   LIG    1        2.399   0.930  -1.215  0.00  0.00    -0.150 A 
ATOM      2  C   LIG    1        2.499   1.557  -0.014  0.00  0.00    +0.270 A 
ATOM      3  N   LIG    1        3.593   2.311   0.285  0.00  0.00    -0.510 N 
ATOM      4  H   LIG    1        3.650   2.753   1.147  0.00  0.00    +0.430 HD
ATOM      5  C   LIG    1        4.596   2.450  -0.602  0.00  0.00    +0.300 A 
ATOM      6  C   LIG    1        4.526   1.816  -1.852  0.00  0.00    +0.040 A 
ATOM      7  S   LIG    1        5.962   3.402  -0.203  0.00  0.00    -0.620 S 
ATOM      8  C   LIG    1        3.437   1.055  -2.158  0.00  0.00    +0.160 A 
ENDROOT
BRANCH   1   9
ATOM      9  S   LIG    1        0.978  -0.041  -1.590  0.00  0.00    -0.060 S 
BRANCH   9  11
ATOM     10  C   LIG    1       -0.395   1.459   0.240  0.00  0.00    +0.050 C 
ATOM     11  C   LIG    1        0.026   0.016  -0.046  0.00  0.00    -0.060 C 
ATOM     12  C   LIG    1       -1.220  -0.861  -0.183  0.00  0.00    +0.090 C 
ATOM     13  C   LIG    1        0.891  -0.501   1.105  0.00  0.00    +0.060 C 
ENDBRANCH   9  11
ENDBRANCH   1   9
TORSDOF 2
ENDMDL
MODEL      174
REMARK  Name = ZINC000034266290
REMARK                            x       y       z     vdW  Elec       q    Type
REMARK                         _______ _______ _______ _____ _____    ______ ____
ROOT
ATOM      1  C   LIG    1       -0.018   1.503   0.010  0.00  0.00    +0.120 C 
ATOM      2  C   LIG    1        0.002  -0.004   0.002  0.00  0.00    -0.020 A 
ATOM      3  C   LIG    1        0.006  -0.721  -1.209  0.00  0.00    -0.100 A 
ATOM      4  C   LIG    1       -0.008  -0.061  -2.449  0.00  0.00    +0.050 A 
ATOM      5  C   LIG    1       -0.003  -0.789  -3.599  0.00  0.00    +0.030 A 
ATOM      6  C   LIG    1        0.016  -2.183  -3.563  0.00  0.00    -0.030 A 
ATOM      7  C   LIG    1        0.031  -2.855  -2.378  0.00  0.00    -0.050 A 
ATOM      8  C   LIG    1        0.051  -4.362  -2.363  0.00  0.00    +0.120 C 
ATOM      9 CL   LIG    1        0.021  -3.076  -5.051  0.00  0.00    -0.060 Cl
ATOM     10  C   LIG    1        0.026  -2.137  -1.169  0.00  0.00    +0.140 A 
ATOM     11  N   LIG    1        0.041  -2.769   0.008  0.00  0.00    -0.470 NA
ATOM     12  C   LIG    1        0.037  -2.105   1.139  0.00  0.00    +0.300 A 
ATOM     13  C   LIG    1        0.023  -0.712   1.170  0.00  0.00    -0.040 A 
ENDROOT
TORSDOF 0
ENDMDL
MODEL      175
REMARK  Name = ZINC000082208568
REMARK                            x       y       z     vdW  Elec       q    Type
REMARK                         _______ _______ _______ _____ _____    ______ ____
ROOT
ATOM      1  C   LIG    1       -1.475  -2.049  -0.033  0.00  0.00    -0.050 C 
ATOM      2  C   LIG    1       -1.962  -2.708   0.989  0.00  0.00    -0.050 C 
ENDROOT
BRANCH   1   3
ATOM      3  C   LIG    1       -1.513  -0.542  -0.044  0.00  0.00    +0.050 C 
BRANCH   3   5
ATOM      4  C   LIG    1       -0.151   1.531  -0.342  0.00  0.00    +0.000 C 
ATOM      5  C   LIG    1       -0.112   0.002  -0.330  0.00  0.00    +0.000 C 
ENDBRANCH   3   5
ENDBRANCH   1   3
BRANCH   2   6
ATOM      6  C   LIG    1       -2.711  -1.975   2.071  0.00  0.00    +0.050 C 
BRANCH   6   7
ATOM      7  C   LIG    1       -4.081  -2.626   2.274  0.00  0.00    +0.010 C 
BRANCH   7   8
ATOM      8  C   LIG    1       -4.842  -1.882   3.373  0.00  0.00    +0.000 C 
BRANCH   8   9
ATOM      9  C   LIG    1       -6.212  -2.533   3.575  0.00  0.00    -0.010 C 
ATOM     10  C   LIG    1       -6.973  -1.789   4.674  0.00  0.00    +0.000 C 
ENDBRANCH   8   9
ENDBRANCH   7   8
ENDBRANCH   6   7
ENDBRANCH   2   6
TORSDOF 6
ENDMDL
MODEL      176
REMARK  Name = ZINC000083333231
REMARK                            x       y       z     vdW  Elec       q    Type
REMARK                         _______ _______ _______ _____ _____    ______ ____
ROOT
ATOM      1  C   LIG    1        0.664  -0.377   3.438  0.00  0.00    +0.030 C 
ATOM      2  C   LIG    1        1.041  -1.843   3.662  0.00  0.00    +0.030 C 
ENDROOT
BRANCH   1   3
ATOM      3  C   LIG    1        1.226   0.462   4.557  0.00  0.00    -0.080 A 
ATOM      4  C   LIG    1        2.591   0.502   4.772  0.00  0.00    +0.000 A 
ATOM      5  C   LIG    1        3.106   1.272   5.798  0.00  0.00    +0.000 A 
ATOM      6  C   LIG    1        2.256   2.003   6.608  0.00  0.00    -0.010 A 
ATOM      7  C   LIG    1        0.891   1.963   6.392  0.00  0.00    +0.000 A 
ATOM      8  C   LIG    1        0.377   1.197   5.363  0.00  0.00    +0.000 A 
ENDBRANCH   1   3
BRANCH   1   9
ATOM      9  C   LIG    1        1.240   0.100   2.104  0.00  0.00    +0.050 C 
BRANCH   9  12
ATOM     10  C   LIG    1       -0.018   1.503   0.010  0.00  0.00    +0.060 C 
ATOM     11  C   LIG    1        0.002  -0.004   0.002  0.00  0.00    -0.050 C 
ATOM     12  C   LIG    1        0.588  -0.657   0.976  0.00  0.00    -0.050 C 
ENDBRANCH   9  12
ENDBRANCH   1   9
TORSDOF 3
ENDMDL
MODEL      177
REMARK  Name = ZINC000083333235
REMARK                            x       y       z     vdW  Elec       q    Type
REMARK                         _______ _______ _______ _____ _____    ______ ____
ROOT
ATOM      1  C   LIG    1        0.664  -0.377   3.438  0.00  0.00    +0.030 C 
ATOM      2  C   LIG    1       -0.820  -0.012   3.512  0.00  0.00    +0.030 C 
ENDROOT
BRANCH   1   3
ATOM      3  C   LIG    1        1.402   0.289   4.571  0.00  0.00    -0.080 A 
ATOM      4  C   LIG    1        1.397   1.667   4.683  0.00  0.00    +0.000 A 
ATOM      5  C   LIG    1        2.074   2.278   5.722  0.00  0.00    +0.000 A 
ATOM      6  C   LIG    1        2.755   1.511   6.649  0.00  0.00    -0.010 A 
ATOM      7  C   LIG    1        2.760   0.133   6.537  0.00  0.00    +0.000 A 
ATOM      8  C   LIG    1        2.079  -0.478   5.500  0.00  0.00    +0.000 A 
ENDBRANCH   1   3
BRANCH   1   9
ATOM      9  C   LIG    1        1.240   0.100   2.104  0.00  0.00    +0.050 C 
BRANCH   9  12
ATOM     10  C   LIG    1       -0.018   1.503   0.010  0.00  0.00    +0.060 C 
ATOM     11  C   LIG    1        0.002  -0.004   0.002  0.00  0.00    -0.050 C 
ATOM     12  C   LIG    1        0.588  -0.657   0.976  0.00  0.00    -0.050 C 
ENDBRANCH   9  12
ENDBRANCH   1   9
TORSDOF 3
ENDMDL
MODEL      178
REMARK  Name = ZINC000083314713
REMARK                            x       y       z     vdW  Elec       q    Type
REMARK                         _______ _______ _______ _____ _____    ______ ____
ROOT
ATOM      1  C   LIG    1        2.574  -1.735   0.092  0.00  0.00    +0.050 C 
ENDROOT
BRANCH   1   3
ATOM      2  C   LIG    1        1.136  -0.440  -1.397  0.00  0.00    -0.050 C 
ATOM      3  C   LIG    1        2.125  -1.290  -1.276  0.00  0.00    -0.050 C 
BRANCH   2   5
ATOM      4  C   LIG    1        0.538   1.739  -0.376  0.00  0.00    +0.010 C 
ATOM      5  C   LIG    1        0.558   0.223  -0.173  0.00  0.00    +0.040 C 
ENDBRANCH   2   5
ENDBRANCH   1   3
BRANCH   1   6
ATOM      6  C   LIG    1        2.570  -3.263   0.158  0.00  0.00    +0.050 C 
BRANCH   6   7
ATOM      7  C   LIG    1        3.018  -3.708   1.526  0.00  0.00    -0.050 C 
ATOM      8  C   LIG    1        2.286  -4.548   2.215  0.00  0.00    -0.050 C 
BRANCH   8   9
ATOM      9  C   LIG    1        1.088  -5.202   1.576  0.00  0.00    +0.040 C 
ATOM     10  C   LIG    1        1.193  -6.721   1.728  0.00  0.00    +0.010 C 
ENDBRANCH   8   9
ENDBRANCH   6   7
ENDBRANCH   1   6
TORSDOF 5
ENDMDL
MODEL      179
REMARK  Name = ZINC000083314714
REMARK                            x       y       z     vdW  Elec       q    Type
REMARK                         _______ _______ _______ _____ _____    ______ ____
ROOT
ATOM      1  C   LIG    1        2.576  -2.051  -2.184  0.00  0.00    +0.050 C 
ENDROOT
BRANCH   1   3
ATOM      2  C   LIG    1        0.752  -0.932  -1.008  0.00  0.00    -0.050 C 
ATOM      3  C   LIG    1        1.889  -1.577  -0.929  0.00  0.00    -0.050 C 
BRANCH   2   5
ATOM      4  C   LIG    1       -0.194   1.047   0.149  0.00  0.00    +0.010 C 
ATOM      5  C   LIG    1        0.065  -0.458   0.247  0.00  0.00    +0.030 C 
ENDBRANCH   2   5
ENDBRANCH   1   3
BRANCH   1   6
ATOM      6  C   LIG    1        4.005  -1.507  -2.220  0.00  0.00    +0.050 C 
BRANCH   6   7
ATOM      7  C   LIG    1        4.692  -1.981  -3.475  0.00  0.00    -0.050 C 
ATOM      8  C   LIG    1        5.276  -1.118  -4.268  0.00  0.00    -0.050 C 
BRANCH   8   9
ATOM      9  C   LIG    1        5.411   0.322  -3.845  0.00  0.00    +0.040 C 
ATOM     10  C   LIG    1        6.877   0.748  -3.946  0.00  0.00    +0.010 C 
ENDBRANCH   8   9
ENDBRANCH   6   7
ENDBRANCH   1   6
TORSDOF 5
ENDMDL
MODEL      180
REMARK  Name = ZINC000090429216
REMARK                            x       y       z     vdW  Elec       q    Type
REMARK                         _______ _______ _______ _____ _____    ______ ____
ROOT
ATOM      1  C   LIG    1        1.444  -2.513  -2.505  0.00  0.00    +0.040 A 
ATOM      2  C   LIG    1        2.759  -2.756  -2.594  0.00  0.00    -0.040 A 
ATOM      3  C   LIG    1        2.999  -3.207  -3.970  0.00  0.00    -0.170 A 
ATOM      4  C   LIG    1        4.131  -3.605  -4.683  0.00  0.00    +0.140 A 
ATOM      5  C   LIG    1        4.006  -3.980  -6.005  0.00  0.00    -0.030 A 
ATOM      6  C   LIG    1        2.765  -3.961  -6.622  0.00  0.00    +0.080 A 
ATOM      7  C   LIG    1        1.640  -3.569  -5.929  0.00  0.00    +0.020 A 
ATOM      8  F   LIG    1        5.341  -3.625  -4.082  0.00  0.00    -0.130 F 
ATOM      9  C   LIG    1        1.742  -3.188  -4.597  0.00  0.00    +0.080 A 
ATOM     10  O   LIG    1        0.845  -2.772  -3.680  0.00  0.00    -0.190 OA
ENDROOT
BRANCH   1  11
ATOM     11  C   LIG    1        0.739  -2.027  -1.265  0.00  0.00    +0.140 C 
BRANCH  11  12
ATOM     12  C   LIG    1        0.718  -0.497  -1.257  0.00  0.00    +0.020 C 
BRANCH  12  14
ATOM     13  C   LIG    1       -0.019   1.526   0.010  0.00  0.00    +0.010 C 
ATOM     14  C   LIG    1        0.002  -0.004   0.002  0.00  0.00    +0.000 C 
ENDBRANCH  12  14
ENDBRANCH  11  12
ENDBRANCH   1  11
TORSDOF 3
ENDMDL
MODEL      181
REMARK  Name = ZINC000299888837
REMARK                            x       y       z     vdW  Elec       q    Type
REMARK                         _______ _______ _______ _____ _____    ______ ____
ROOT
ATOM      1  N   LIG    1       -0.020   1.650   0.011  0.00  0.00    +0.070 NA
ATOM      2  N   LIG    1        0.841   2.605   0.008  0.00  0.00    -0.340 NA
ATOM      3  P   LIG    1        2.577   2.693  -0.008  0.00  0.00    +0.720 P 
ATOM      4  N   LIG    1        3.777   1.535  -0.026  0.00  0.00    -0.620 NA
ATOM      5  P   LIG    1        3.728  -0.132  -0.034  0.00  0.00    +0.720 P 
ATOM      6  N   LIG    1        2.426  -1.283  -0.028  0.00  0.00    -0.340 NA
ATOM      7  N   LIG    1        1.142  -1.202  -0.015  0.00  0.00    +0.070 NA
ATOM      8  P   LIG    1        0.002  -0.004   0.002  0.00  0.00    -0.290 P 
ENDROOT
TORSDOF 0
ENDMDL
MODEL      182
REMARK  Name = ZINC000036156579
REMARK                            x       y       z     vdW  Elec       q    Type
REMARK                         _______ _______ _______ _____ _____    ______ ____
ROOT
ATOM      1  C   LIG    1        1.596  -3.957  -2.747  0.00  0.00    -0.180 A 
ATOM      2  C   LIG    1        1.082  -4.881  -1.832  0.00  0.00    +0.060 A 
ATOM      3  C   LIG    1        1.229  -6.232  -2.066  0.00  0.00    +0.000 A 
ATOM      4  C   LIG    1        1.882  -6.674  -3.203  0.00  0.00    -0.050 A 
ATOM      5  C   LIG    1        2.394  -5.766  -4.113  0.00  0.00    -0.100 A 
ATOM      6  C   LIG    1        3.104  -6.258  -5.348  0.00  0.00    +0.090 C 
ATOM      7  C   LIG    1        2.038  -8.153  -3.450  0.00  0.00    +0.090 C 
ATOM      8  C   LIG    1        2.250  -4.412  -3.897  0.00  0.00    +0.070 A 
ENDROOT
BRANCH   1   9
ATOM      9  C   LIG    1        1.444  -2.513  -2.505  0.00  0.00    +0.400 C 
ATOM     10  O   LIG    1        1.887  -1.715  -3.303  0.00  0.00    -0.450 OA
BRANCH   9  11
ATOM     11  C   LIG    1        0.739  -2.027  -1.265  0.00  0.00    +0.030 C 
BRANCH  11  12
ATOM     12  C   LIG    1        0.718  -0.497  -1.257  0.00  0.00    +0.030 C 
BRANCH  12  14
ATOM     13  C   LIG    1       -0.019   1.526   0.010  0.00  0.00    +0.000 C 
ATOM     14  C   LIG    1        0.002  -0.004   0.002  0.00  0.00    +0.000 C 
ENDBRANCH  12  14
ENDBRANCH  11  12
ENDBRANCH   9  11
ENDBRANCH   1   9
TORSDOF 4
ENDMDL
MODEL      183
REMARK  Name = ZINC000036156574
REMARK                            x       y       z     vdW  Elec       q    Type
REMARK                         _______ _______ _______ _____ _____    ______ ____
ROOT
ATOM      1  C   LIG    1       -3.076  -4.035   0.010  0.00  0.00    -0.180 A 
ATOM      2  C   LIG    1       -2.003  -4.933   0.001  0.00  0.00    +0.060 A 
ATOM      3  C   LIG    1       -2.245  -6.290  -0.005  0.00  0.00    +0.000 A 
ATOM      4  C   LIG    1       -3.545  -6.766  -0.001  0.00  0.00    -0.050 A 
ATOM      5  C   LIG    1       -4.612  -5.884   0.008  0.00  0.00    +0.000 A 
ATOM      6  C   LIG    1       -4.386  -4.524   0.020  0.00  0.00    +0.070 A 
ENDROOT
BRANCH   1   7
ATOM      7  C   LIG    1       -2.826  -2.585   0.015  0.00  0.00    +0.400 C 
ATOM      8  O   LIG    1       -3.759  -1.810   0.028  0.00  0.00    -0.450 OA
BRANCH   7   9
ATOM      9  C   LIG    1       -1.413  -2.063   0.004  0.00  0.00    +0.030 C 
BRANCH   9  10
ATOM     10  C   LIG    1       -1.433  -0.534   0.013  0.00  0.00    +0.030 C 
BRANCH  10  12
ATOM     11  C   LIG    1       -0.019   1.526   0.010  0.00  0.00    +0.000 C 
ATOM     12  C   LIG    1        0.002  -0.004   0.002  0.00  0.00    +0.000 C 
ENDBRANCH  10  12
ENDBRANCH   9  10
ENDBRANCH   7   9
ENDBRANCH   1   7
BRANCH   4  13
ATOM     13  C   LIG    1       -3.800  -8.251  -0.007  0.00  0.00    +0.070 C 
ATOM     14  C   LIG    1       -3.880  -8.760   1.434  0.00  0.00    +0.030 C 
ENDBRANCH   4  13
TORSDOF 5
ENDMDL
MODEL      184
REMARK  Name = ZINC000059727266
REMARK                            x       y       z     vdW  Elec       q    Type
REMARK                         _______ _______ _______ _____ _____    ______ ____
ROOT
ATOM      1  C   LIG    1        2.581  -2.791  -0.117  0.00  0.00    -0.030 C 
ATOM      2  C   LIG    1        2.598  -4.112   0.056  0.00  0.00    -0.030 C 
ENDROOT
BRANCH   1   4
ATOM      3  C   LIG    1        1.289  -0.728  -0.243  0.00  0.00    -0.020 C 
ATOM      4  C   LIG    1        1.304  -2.075  -0.164  0.00  0.00    +0.000 C 
BRANCH   3   6
ATOM      5  C   LIG    1       -0.004   1.319  -0.368  0.00  0.00    +0.020 C 
ATOM      6  C   LIG    1        0.012  -0.012  -0.290  0.00  0.00    -0.020 C 
ENDBRANCH   3   6
ENDBRANCH   1   4
BRANCH   2   7
ATOM      7  C   LIG    1        1.306  -4.888   0.064  0.00  0.00    +0.040 C 
BRANCH   7   8
ATOM      8  C   LIG    1        1.383  -6.019  -0.963  0.00  0.00    +0.000 C 
BRANCH   8   9
ATOM      9  C   LIG    1        0.072  -6.807  -0.954  0.00  0.00    +0.000 C 
BRANCH   9  10
ATOM     10  C   LIG    1        0.149  -7.938  -1.981  0.00  0.00    -0.010 C 
ATOM     11  C   LIG    1       -1.163  -8.726  -1.973  0.00  0.00    +0.000 C 
ENDBRANCH   9  10
ENDBRANCH   8   9
ENDBRANCH   7   8
ENDBRANCH   2   7
TORSDOF 6
ENDMDL
MODEL      185
REMARK  Name = ZINC000096511808
REMARK                            x       y       z     vdW  Elec       q    Type
REMARK                         _______ _______ _______ _____ _____    ______ ____
ROOT
ATOM      1  C   LIG    1       -0.018   1.503   0.010  0.00  0.00    +0.090 C 
ATOM      2  C   LIG    1        0.002  -0.004   0.002  0.00  0.00    -0.120 A 
ATOM      3  C   LIG    1        0.006  -0.689  -1.198  0.00  0.00    +0.050 A 
ATOM      4  C   LIG    1        0.024  -2.071  -1.206  0.00  0.00    -0.030 A 
ATOM      5  C   LIG    1        0.039  -2.772  -0.014  0.00  0.00    +0.030 A 
ATOM      6  C   LIG    1        0.036  -2.092   1.188  0.00  0.00    -0.080 A 
ATOM      7  C   LIG    1        0.023  -0.705   1.199  0.00  0.00    +0.130 A 
ENDROOT
BRANCH   7   8
ATOM      8  O   LIG    1        0.020  -0.034   2.381  0.00  0.00    -0.310 OA
BRANCH   8   9
ATOM      9  C   LIG    1        0.030  -0.820   3.574  0.00  0.00    +0.180 C 
BRANCH   9  10
ATOM     10  C   LIG    1        0.025   0.104   4.794  0.00  0.00    +0.050 C 
BRANCH  10  11
ATOM     11  C   LIG    1        0.036  -0.739   6.071  0.00  0.00    -0.020 C 
ATOM     12  C   LIG    1        1.449  -1.116   6.548  0.00  0.00    +0.010 C 
ATOM     13  C   LIG    1        0.951  -0.853   7.979  0.00  0.00    +0.010 C 
ATOM     14  C   LIG    1       -0.091   0.093   7.359  0.00  0.00    +0.010 C 
ENDBRANCH  10  11
ENDBRANCH   9  10
ENDBRANCH   8   9
ENDBRANCH   7   8
TORSDOF 4
ENDMDL
MODEL      186
REMARK  Name = ZINC000055169533
REMARK                            x       y       z     vdW  Elec       q    Type
REMARK                         _______ _______ _______ _____ _____    ______ ____
ROOT
ATOM      1  C   LIG    1       -2.050  -3.188  -0.726  0.00  0.00    +0.060 C 
ENDROOT
BRANCH   1   3
ATOM      2  C   LIG    1       -0.480  -1.384  -1.292  0.00  0.00    -0.040 C 
ATOM      3  C   LIG    1       -0.685  -2.686  -1.123  0.00  0.00    -0.110 C 
ATOM      4  C   LIG    1        0.446  -3.660  -1.328  0.00  0.00    +0.080 C 
BRANCH   2   6
ATOM      5  C   LIG    1        1.057   0.408  -1.850  0.00  0.00    +0.020 C 
ATOM      6  C   LIG    1        0.852  -0.894  -1.680  0.00  0.00    -0.020 C 
ENDBRANCH   2   6
ENDBRANCH   1   3
BRANCH   1   7
ATOM      7  C   LIG    1       -2.826  -3.600  -1.978  0.00  0.00    +0.050 C 
BRANCH   7   8
ATOM      8  C   LIG    1       -4.190  -4.102  -1.581  0.00  0.00    -0.060 C 
ATOM      9  C   LIG    1       -5.265  -3.522  -2.054  0.00  0.00    -0.130 C 
ATOM     10  C   LIG    1       -6.625  -4.104  -1.765  0.00  0.00    +0.070 C 
ATOM     11  C   LIG    1       -5.142  -2.274  -2.889  0.00  0.00    +0.080 C 
ENDBRANCH   7   8
ENDBRANCH   1   7
TORSDOF 4
ENDMDL
MODEL      187
REMARK  Name = ZINC000085599275
REMARK                            x       y       z     vdW  Elec       q    Type
REMARK                         _______ _______ _______ _____ _____    ______ ____
ROOT
ATOM      1  C   LIG    1        0.332  -3.357  -0.683  0.00  0.00    +0.060 C 
ENDROOT
BRANCH   1   3
ATOM      2  C   LIG    1       -1.252  -1.563  -1.242  0.00  0.00    -0.030 C 
ATOM      3  C   LIG    1       -1.036  -2.864  -1.079  0.00  0.00    -0.110 C 
ATOM      4  C   LIG    1       -2.159  -3.847  -1.291  0.00  0.00    +0.070 C 
BRANCH   2   6
ATOM      5  C   LIG    1       -0.372   0.697  -1.197  0.00  0.00    +0.020 C 
ATOM      6  C   LIG    1       -0.155  -0.604  -1.035  0.00  0.00    -0.010 C 
ENDBRANCH   2   6
ENDBRANCH   1   3
BRANCH   1   7
ATOM      7  C   LIG    1        0.393  -3.529   0.836  0.00  0.00    +0.050 C 
BRANCH   7   8
ATOM      8  C   LIG    1        1.760  -4.022   1.231  0.00  0.00    -0.060 C 
ATOM      9  C   LIG    1        1.881  -5.103   1.961  0.00  0.00    -0.130 C 
ATOM     10  C   LIG    1        3.247  -5.676   2.240  0.00  0.00    +0.070 C 
ATOM     11  C   LIG    1        0.654  -5.775   2.522  0.00  0.00    +0.080 C 
ENDBRANCH   7   8
ENDBRANCH   1   7
TORSDOF 4
ENDMDL
MODEL      188
REMARK  Name = ZINC000098090829
REMARK                            x       y       z     vdW  Elec       q    Type
REMARK                         _______ _______ _______ _____ _____    ______ ____
ROOT
ATOM      1  C   LIG    1        2.656  -0.319  -2.288  0.00  0.00    +0.010 C 
ENDROOT
BRANCH   1   2
ATOM      2  C   LIG    1        1.200   0.122  -2.122  0.00  0.00    +0.040 C 
BRANCH   2   5
ATOM      3  C   LIG    1       -0.018   1.503   0.010  0.00  0.00    +0.060 C 
ATOM      4  C   LIG    1        0.002  -0.004   0.002  0.00  0.00    -0.060 C 
ATOM      5  C   LIG    1        0.569  -0.646  -0.989  0.00  0.00    -0.050 C 
ENDBRANCH   2   5
ENDBRANCH   1   2
BRANCH   1   6
ATOM      6  C   LIG    1        3.297   0.462  -3.437  0.00  0.00    +0.010 C 
BRANCH   6   7
ATOM      7  C   LIG    1        4.753   0.021  -3.604  0.00  0.00    +0.040 C 
BRANCH   7   8
ATOM      8  C   LIG    1        5.384   0.789  -4.736  0.00  0.00    -0.050 C 
ATOM      9  C   LIG    1        6.487   1.466  -4.533  0.00  0.00    -0.060 C 
ATOM     10  C   LIG    1        7.124   1.477  -3.167  0.00  0.00    +0.060 C 
ENDBRANCH   7   8
ENDBRANCH   6   7
ENDBRANCH   1   6
TORSDOF 5
ENDMDL
MODEL      189
REMARK  Name = ZINC000098090830
REMARK                            x       y       z     vdW  Elec       q    Type
REMARK                         _______ _______ _______ _____ _____    ______ ____
ROOT
ATOM      1  C   LIG    1       -0.026  -2.664  -2.302  0.00  0.00    +0.000 C 
ENDROOT
BRANCH   1   2
ATOM      2  C   LIG    1        0.589  -2.153  -0.998  0.00  0.00    +0.040 C 
BRANCH   2   5
ATOM      3  C   LIG    1       -0.018   1.503   0.010  0.00  0.00    +0.050 C 
ATOM      4  C   LIG    1        0.002  -0.004   0.002  0.00  0.00    -0.050 C 
ATOM      5  C   LIG    1        0.569  -0.646  -0.989  0.00  0.00    -0.050 C 
ENDBRANCH   2   5
ENDBRANCH   1   2
BRANCH   1   6
ATOM      6  C   LIG    1       -0.005  -4.194  -2.310  0.00  0.00    +0.000 C 
BRANCH   6   7
ATOM      7  C   LIG    1       -0.620  -4.705  -3.615  0.00  0.00    +0.040 C 
BRANCH   7   8
ATOM      8  C   LIG    1       -0.600  -6.212  -3.623  0.00  0.00    -0.050 C 
ATOM      9  C   LIG    1       -1.710  -6.881  -3.813  0.00  0.00    -0.060 C 
ATOM     10  C   LIG    1       -3.007  -6.144  -4.023  0.00  0.00    +0.060 C 
ENDBRANCH   7   8
ENDBRANCH   6   7
ENDBRANCH   1   6
TORSDOF 5
ENDMDL
MODEL      190
REMARK  Name = ZINC000105230402
REMARK                            x       y       z     vdW  Elec       q    Type
REMARK                         _______ _______ _______ _____ _____    ______ ____
ROOT
ATOM      1 BR   LIG    1        0.002  -0.004   0.002  0.00  0.00    -0.080 Br
ATOM      2  C   LIG    1       -0.024   1.887   0.012  0.00  0.00    -0.120 C 
ATOM      3  C   LIG    1       -1.138   2.484   0.032  0.00  0.00    +0.010 C 
ATOM      4  C   LIG    1       -2.353   1.934  -0.669  0.00  0.00    +0.070 C 
ATOM      5  C   LIG    1       -2.192   2.635  -2.044  0.00  0.00    +0.030 C 
ATOM      6  C   LIG    1       -0.785   2.356  -2.614  0.00  0.00    +0.000 C 
ATOM      7  C   LIG    1        0.225   3.412  -2.169  0.00  0.00    +0.010 C 
ATOM      8  C   LIG    1        1.479   2.774  -1.536  0.00  0.00    +0.020 C 
ATOM      9  C   LIG    1        1.284   2.634   0.004  0.00  0.00    +0.100 C 
ENDROOT
TORSDOF 0
ENDMDL
MODEL      191
REMARK  Name = ZINC000104952003
REMARK                            x       y       z     vdW  Elec       q    Type
REMARK                         _______ _______ _______ _____ _____    ______ ____
ROOT
ATOM      1  C   LIG    1       -0.018   1.502   0.010  0.00  0.00    +0.070 C 
ATOM      2  C   LIG    1        0.002  -0.004   0.002  0.00  0.00    -0.140 C 
ATOM      3  C   LIG    1        0.046  -0.661  -1.130  0.00  0.00    -0.040 C 
ATOM      4  C   LIG    1        0.154   0.071  -2.441  0.00  0.00    +0.050 C 
ATOM      5  C   LIG    1        1.218  -0.599  -3.313  0.00  0.00    +0.010 C 
ATOM      6  C   LIG    1        2.578  -0.569  -2.614  0.00  0.00    +0.040 C 
ATOM      7  C   LIG    1        2.481  -1.289  -1.293  0.00  0.00    -0.050 C 
ATOM      8  C   LIG    1        2.636  -0.624  -0.175  0.00  0.00    -0.050 C 
ATOM      9  C   LIG    1        2.469  -1.321   1.151  0.00  0.00    +0.040 C 
ATOM     10  C   LIG    1        1.393  -0.604   1.968  0.00  0.00    +0.010 C 
ATOM     11  C   LIG    1        0.025  -0.767   1.303  0.00  0.00    +0.040 C 
ENDROOT
TORSDOF 0
ENDMDL
MODEL      192
REMARK  Name = ZINC000114911634
REMARK                            x       y       z     vdW  Elec       q    Type
REMARK                         _______ _______ _______ _____ _____    ______ ____
ROOT
ATOM      1  C   LIG    1       -1.706  -0.051   0.013  0.00  0.00    -0.034 A 
ATOM      2  C   LIG    1       -2.419  -0.292   1.169  0.00  0.00    +0.004 A 
ATOM      3  C   LIG    1       -3.425  -1.242   1.180  0.00  0.00    +0.001 A 
ATOM      4  C   LIG    1       -3.724  -1.958   0.034  0.00  0.00    +0.004 A 
ATOM      5  C   LIG    1       -3.020  -1.729  -1.130  0.00  0.00    -0.034 A 
ATOM      6  C   LIG    1       -2.006  -0.766  -1.151  0.00  0.00    +0.021 A 
ENDROOT
BRANCH   1   8
ATOM      7  C   LIG    1       -1.217   2.371   0.225  0.00  0.00    +0.012 C 
ATOM      8  C   LIG    1       -0.610   0.984   0.003  0.00  0.00    +0.014 C 
ATOM      9  C   LIG    1        0.389   0.679   1.121  0.00  0.00    +0.012 C 
ENDBRANCH   1   8
BRANCH   5  10
ATOM     10  C   LIG    1       -3.347  -2.509  -2.377  0.00  0.00    +0.014 C 
ATOM     11  C   LIG    1       -4.443  -1.783  -3.160  0.00  0.00    +0.012 C 
ATOM     12  C   LIG    1       -3.837  -3.906  -1.990  0.00  0.00    +0.012 C 
ENDBRANCH   5  10
BRANCH   6  13
ATOM     13  C   LIG    1       -1.250  -0.515  -2.389  0.00  0.00    +0.259 C 
ATOM     14  O   LIG    1       -1.571  -1.070  -3.418  0.00  0.00    -0.296 OA
ENDBRANCH   6  13
TORSDOF 3
ENDMDL
MODEL      193
REMARK  Name = ZINC000408734588
REMARK                            x       y       z     vdW  Elec       q    Type
REMARK                         _______ _______ _______ _____ _____    ______ ____
ROOT
ATOM      1  C   LIG    1        0.718  -0.497  -1.257  0.00  0.00    +0.090 C 
ATOM      2  C   LIG    1        2.151  -0.059  -1.210  0.00  0.00    -0.120 C 
ATOM      3  C   LIG    1        3.135  -0.876  -0.918  0.00  0.00    +0.120 C 
ATOM      4  N   LIG    1        2.904  -2.215  -0.637  0.00  0.00    -0.670 N 
ATOM      5  H   LIG    1        3.579  -2.742  -0.182  0.00  0.00    +0.410 HD
ATOM      6  C   LIG    1        1.693  -2.801  -1.015  0.00  0.00    +0.190 A 
ATOM      7  C   LIG    1        1.576  -4.183  -1.075  0.00  0.00    -0.050 A 
ATOM      8  C   LIG    1        0.378  -4.756  -1.454  0.00  0.00    +0.030 A 
ATOM      9  C   LIG    1       -0.702  -3.953  -1.773  0.00  0.00    -0.040 A 
ATOM     10  C   LIG    1       -0.588  -2.577  -1.712  0.00  0.00    +0.040 A 
ATOM     11  C   LIG    1        4.547  -0.349  -0.886  0.00  0.00    +0.100 C 
ATOM     12  C   LIG    1        0.609  -1.995  -1.331  0.00  0.00    -0.130 A 
ENDROOT
BRANCH   1  14
ATOM     13  C   LIG    1       -0.019   1.526   0.010  0.00  0.00    +0.010 C 
ATOM     14  C   LIG    1        0.002  -0.004   0.002  0.00  0.00    +0.010 C 
ENDBRANCH   1  14
TORSDOF 1
ENDMDL
MODEL      194
REMARK  Name = ZINC000001656087
REMARK                            x       y       z     vdW  Elec       q    Type
REMARK                         _______ _______ _______ _____ _____    ______ ____
ROOT
ATOM      1  C   LIG    1       -2.307  -3.058   0.008  0.00  0.00    -0.020 C 
ATOM      2  C   LIG    1       -3.070  -2.789  -1.291  0.00  0.00    +0.000 C 
ATOM      3  C   LIG    1       -2.220  -3.232  -2.483  0.00  0.00    +0.000 C 
ATOM      4  C   LIG    1       -1.921  -4.728  -2.368  0.00  0.00    -0.010 C 
ATOM      5  C   LIG    1       -1.159  -4.998  -1.070  0.00  0.00    +0.000 C 
ATOM      6  C   LIG    1       -2.009  -4.555   0.122  0.00  0.00    +0.010 C 
ENDROOT
BRANCH   4   7
ATOM      7  C   LIG    1       -1.071  -5.172  -3.561  0.00  0.00    -0.020 C 
ATOM      8  C   LIG    1       -1.833  -4.902  -4.859  0.00  0.00    +0.010 C 
ATOM      9  C   LIG    1       -0.773  -6.668  -3.446  0.00  0.00    +0.010 C 
ENDBRANCH   4   7
BRANCH   1  10
ATOM     10  C   LIG    1       -0.993  -2.276  -0.001  0.00  0.00    +0.040 C 
BRANCH  10  11
ATOM     11  C   LIG    1       -1.293  -0.775   0.010  0.00  0.00    +0.020 C 
BRANCH  11  13
ATOM     12  C   LIG    1       -0.018   1.503   0.010  0.00  0.00    +0.050 C 
ATOM     13  C   LIG    1        0.002  -0.004   0.002  0.00  0.00    +0.350 C 
ATOM     14  O   LIG    1        1.056  -0.594  -0.011  0.00  0.00    -0.460 OA
ENDBRANCH  11  13
ENDBRANCH  10  11
ENDBRANCH   1  10
TORSDOF 4
ENDMDL
MODEL      195
REMARK  Name = ZINC000521396124
REMARK                            x       y       z     vdW  Elec       q    Type
REMARK                         _______ _______ _______ _____ _____    ______ ____
ROOT
ATOM      1  C   LIG    1        1.508  -2.029  -0.023  0.00  0.00    +0.190 C 
ATOM      2  C   LIG    1        1.897  -2.490  -1.417  0.00  0.00    +0.040 C 
ATOM      3  C   LIG    1        3.141  -2.950  -1.267  0.00  0.00    -0.010 C 
ATOM      4  N   LIG    1        3.547  -2.829   0.016  0.00  0.00    -0.150 NA
ATOM      5  N   LIG    1        2.708  -2.331   0.776  0.00  0.00    -0.150 NA
ENDROOT
BRANCH   1   9
ATOM      6  C   LIG    1       -0.017   1.380   0.010  0.00  0.00    +0.010 A 
ATOM      7  C   LIG    1        1.185   1.958   0.001  0.00  0.00    -0.040 A 
ATOM      8  S   LIG    1        2.435   0.721  -0.017  0.00  0.00    +0.130 S 
ATOM      9  C   LIG    1        1.219  -0.550  -0.013  0.00  0.00    -0.160 A 
ATOM     10  C   LIG    1        0.002  -0.004   0.002  0.00  0.00    +0.020 A 
ENDBRANCH   1   9
BRANCH   3  11
ATOM     11  C   LIG    1        3.979  -3.527  -2.379  0.00  0.00    +0.020 C 
ATOM     12  C   LIG    1        5.450  -3.821  -2.075  0.00  0.00    +0.050 C 
ATOM     13  C   LIG    1        4.455  -4.973  -2.227  0.00  0.00    +0.040 C 
ENDBRANCH   3  11
TORSDOF 2
ENDMDL
MODEL      196
REMARK  Name = ZINC000002173418
REMARK                            x       y       z     vdW  Elec       q    Type
REMARK                         _______ _______ _______ _____ _____    ______ ____
ROOT
ATOM      1  C   LIG    1       -0.038  -0.713  -2.372  0.00  0.00    +0.220 A 
ATOM      2  C   LIG    1       -1.420  -0.490  -2.386  0.00  0.00    -0.050 A 
ATOM      3  C   LIG    1       -2.152  -0.711  -3.510  0.00  0.00    +0.070 A 
ATOM      4  C   LIG    1       -1.520  -1.170  -4.679  0.00  0.00    -0.100 A 
ATOM      5  C   LIG    1       -2.251  -1.406  -5.856  0.00  0.00    +0.030 A 
ATOM      6  C   LIG    1       -1.609  -1.850  -6.971  0.00  0.00    -0.020 A 
ATOM      7  C   LIG    1       -0.233  -2.074  -6.966  0.00  0.00    +0.020 A 
ATOM      8  C   LIG    1        0.508  -1.856  -5.845  0.00  0.00    -0.010 A 
ATOM      9  C   LIG    1       -0.120  -1.398  -4.674  0.00  0.00    +0.000 A 
ATOM     10  C   LIG    1        0.614  -1.157  -3.502  0.00  0.00    -0.080 A 
ENDROOT
BRANCH   1  11
ATOM     11  N   LIG    1        0.688  -0.476  -1.203  0.00  0.00    -0.630 N 
BRANCH  11  13
ATOM     12  C   LIG    1       -0.019   1.526   0.010  0.00  0.00    +0.010 C 
ATOM     13  C   LIG    1        0.002  -0.004   0.002  0.00  0.00    +0.270 C 
ENDBRANCH  11  13
BRANCH  11  14
ATOM     14  C   LIG    1        2.135  -0.701  -1.182  0.00  0.00    +0.270 C 
ATOM     15  C   LIG    1        2.421  -2.145  -0.763  0.00  0.00    +0.010 C 
ENDBRANCH  11  14
ENDBRANCH   1  11
TORSDOF 3
ENDMDL
MODEL      197
REMARK  Name = ZINC000037745995
REMARK                            x       y       z     vdW  Elec       q    Type
REMARK                         _______ _______ _______ _____ _____    ______ ____
ROOT
ATOM      1  C   LIG    1       -0.018   1.503   0.010  0.00  0.00    +0.090 C 
ATOM      2  C   LIG    1        0.002  -0.004   0.002  0.00  0.00    -0.090 A 
ATOM      3  C   LIG    1        0.006  -0.688  -1.201  0.00  0.00    +0.040 A 
ATOM      4  C   LIG    1        0.025  -2.071  -1.220  0.00  0.00    -0.090 A 
ATOM      5  C   LIG    1        0.041  -2.780  -0.037  0.00  0.00    +0.060 A 
ATOM      6  C   LIG    1        0.037  -2.096   1.183  0.00  0.00    -0.160 A 
ATOM      7  C   LIG    1        0.028  -2.806  -2.535  0.00  0.00    +0.090 C 
ATOM      8  C   LIG    1        0.023  -0.698   1.193  0.00  0.00    +0.050 A 
ENDROOT
BRANCH   6   9
ATOM      9  C   LIG    1        0.054  -2.845   2.450  0.00  0.00    +0.400 C 
ATOM     10  O   LIG    1        0.071  -4.057   2.438  0.00  0.00    -0.450 OA
BRANCH   9  11
ATOM     11  C   LIG    1        0.051  -2.105   3.763  0.00  0.00    +0.040 C 
BRANCH  11  12
ATOM     12  C   LIG    1        0.071  -3.110   4.916  0.00  0.00    -0.010 C 
ATOM     13  C   LIG    1       -0.058  -2.365   6.246  0.00  0.00    +0.030 C 
ATOM     14  C   LIG    1        1.389  -3.887   4.893  0.00  0.00    +0.020 C 
ENDBRANCH  11  12
ENDBRANCH   9  11
ENDBRANCH   6   9
TORSDOF 3
ENDMDL
MODEL      198
REMARK  Name = ZINC000037866097
REMARK                            x       y       z     vdW  Elec       q    Type
REMARK                         _______ _______ _______ _____ _____    ______ ____
ROOT
ATOM      1  C   LIG    1       -0.596  -3.910  -1.567  0.00  0.00    +0.160 A 
ATOM      2  C   LIG    1       -1.706  -4.479  -2.191  0.00  0.00    -0.030 A 
ATOM      3  C   LIG    1       -1.956  -5.829  -2.018  0.00  0.00    +0.060 A 
ATOM      4  C   LIG    1       -1.086  -6.568  -1.227  0.00  0.00    -0.140 A 
ATOM      5  C   LIG    1       -0.004  -5.939  -0.638  0.00  0.00    +0.250 A 
ATOM      6  N   LIG    1        0.214  -4.654  -0.822  0.00  0.00    -0.470 NA
ENDROOT
BRANCH   1   8
ATOM      7  C   LIG    1        0.793  -1.944  -1.238  0.00  0.00    -0.060 C 
ATOM      8  C   LIG    1       -0.315  -2.470  -1.742  0.00  0.00    -0.020 C 
ATOM      9  C   LIG    1        1.842  -2.839  -0.629  0.00  0.00    +0.100 C 
BRANCH   7  10
ATOM     10  C   LIG    1        1.004  -0.453  -1.274  0.00  0.00    +0.050 C 
BRANCH  10  12
ATOM     11  C   LIG    1        0.760   1.674   0.016  0.00  0.00    +0.010 C 
ATOM     12  C   LIG    1        0.546   0.159   0.052  0.00  0.00    +0.000 C 
ENDBRANCH  10  12
ENDBRANCH   7  10
ENDBRANCH   1   8
BRANCH   4  13
ATOM     13  C   LIG    1       -1.319  -8.041  -1.012  0.00  0.00    +0.070 C 
ATOM     14  C   LIG    1       -0.594  -8.836  -2.100  0.00  0.00    +0.020 C 
ENDBRANCH   4  13
TORSDOF 4
ENDMDL
MODEL      199
REMARK  Name = ZINC000037866096
REMARK                            x       y       z     vdW  Elec       q    Type
REMARK                         _______ _______ _______ _____ _____    ______ ____
ROOT
ATOM      1  C   LIG    1       -1.410  -0.620   2.365  0.00  0.00    +0.150 A 
ATOM      2  C   LIG    1       -2.099  -0.767   3.569  0.00  0.00    -0.030 A 
ATOM      3  C   LIG    1       -3.478  -0.651   3.573  0.00  0.00    +0.060 A 
ATOM      4  C   LIG    1       -4.125  -0.393   2.372  0.00  0.00    -0.140 A 
ATOM      5  C   LIG    1       -3.379  -0.259   1.215  0.00  0.00    +0.250 A 
ATOM      6  N   LIG    1       -2.067  -0.368   1.238  0.00  0.00    -0.460 NA
ENDROOT
BRANCH   1   8
ATOM      7  C   LIG    1        0.713  -0.718   1.188  0.00  0.00    -0.060 C 
ATOM      8  C   LIG    1        0.063  -0.740   2.344  0.00  0.00    -0.020 C 
BRANCH   7  10
ATOM      9  C   LIG    1       -0.458   0.704  -0.473  0.00  0.00    +0.030 C 
ATOM     10  C   LIG    1       -0.054  -0.727  -0.109  0.00  0.00    +0.060 C 
ENDBRANCH   7  10
BRANCH   7  11
ATOM     11  C   LIG    1        2.220  -0.683   1.172  0.00  0.00    +0.040 C 
ATOM     12  C   LIG    1        2.760  -2.108   1.032  0.00  0.00    +0.030 C 
ENDBRANCH   7  11
ENDBRANCH   1   8
BRANCH   4  13
ATOM     13  C   LIG    1       -5.625  -0.259   2.330  0.00  0.00    +0.060 C 
ATOM     14  C   LIG    1       -6.013   1.203   2.557  0.00  0.00    +0.020 C 
ENDBRANCH   4  13
TORSDOF 4
ENDMDL
MODEL      200
REMARK  Name = ZINC000021504401
REMARK                            x       y       z     vdW  Elec       q    Type
REMARK                         _______ _______ _______ _____ _____    ______ ____
ROOT
ATOM      1  C   LIG    1        1.444  -2.513  -2.505  0.00  0.00    -0.140 A 
ATOM      2  C   LIG    1        0.725  -2.741  -3.664  0.00  0.00    +0.050 A 
ATOM      3  C   LIG    1        1.368  -3.187  -4.802  0.00  0.00    -0.070 A 
ATOM      4  C   LIG    1        2.740  -3.406  -4.782  0.00  0.00    +0.210 A 
ATOM      5  C   LIG    1        3.459  -3.176  -3.616  0.00  0.00    -0.080 A 
ATOM      6  C   LIG    1        2.811  -2.725  -2.483  0.00  0.00    +0.050 A 
ENDROOT
BRANCH   4   7
ATOM      7  N   LIG    1        3.393  -3.856  -5.931  0.00  0.00    -0.750 N 
ATOM      8  H   LIG    1        2.890  -4.016  -6.744  0.00  0.00    +0.400 HD
BRANCH   7   9
ATOM      9  C   LIG    1        4.840  -4.086  -5.908  0.00  0.00    +0.240 C 
BRANCH   9  10
ATOM     10  C   LIG    1        5.301  -4.572  -7.284  0.00  0.00    +0.000 C 
ATOM     11  C   LIG    1        6.812  -4.813  -7.260  0.00  0.00    +0.030 C 
ENDBRANCH   9  10
ENDBRANCH   7   9
ENDBRANCH   4   7
BRANCH   1  12
ATOM     12  C   LIG    1        0.739  -2.027  -1.265  0.00  0.00    +0.070 C 
BRANCH  12  13
ATOM     13  C   LIG    1        0.718  -0.497  -1.257  0.00  0.00    +0.010 C 
BRANCH  13  15
ATOM     14  C   LIG    1       -0.019   1.526   0.010  0.00  0.00    +0.000 C 
ATOM     15  C   LIG    1        0.002  -0.004   0.002  0.00  0.00    -0.010 C 
ENDBRANCH  13  15
ENDBRANCH  12  13
ENDBRANCH   1  12
TORSDOF 6
ENDMDL
MODEL      201
REMARK  Name = ZINC000034440591
REMARK                            x       y       z     vdW  Elec       q    Type
REMARK                         _______ _______ _______ _____ _____    ______ ____
ROOT
ATOM      1  C   LIG    1       -2.827  -4.123   0.007  0.00  0.00    +0.030 C 
ENDROOT
BRANCH   1   2
ATOM      2  C   LIG    1       -4.241  -4.644   0.018  0.00  0.00    +0.360 C 
ATOM      3  O   LIG    1       -5.169  -3.872   0.031  0.00  0.00    -0.450 OA
BRANCH   2   4
ATOM      4  C   LIG    1       -4.496  -6.130   0.012  0.00  0.00    -0.120 C 
ATOM      5  C   LIG    1       -3.860  -6.761   1.252  0.00  0.00    +0.050 C 
ATOM      6  C   LIG    1       -3.884  -6.748  -1.246  0.00  0.00    +0.050 C 
ATOM      7  C   LIG    1       -6.004  -6.388   0.025  0.00  0.00    +0.040 C 
ENDBRANCH   2   4
ENDBRANCH   1   2
BRANCH   1   8
ATOM      8  C   LIG    1       -2.848  -2.593   0.015  0.00  0.00    +0.030 C 
BRANCH   8   9
ATOM      9  C   LIG    1       -1.413  -2.063   0.004  0.00  0.00    +0.000 C 
BRANCH   9  10
ATOM     10  C   LIG    1       -1.433  -0.534   0.013  0.00  0.00    +0.000 C 
BRANCH  10  12
ATOM     11  C   LIG    1       -0.019   1.526   0.010  0.00  0.00    +0.000 C 
ATOM     12  C   LIG    1        0.002  -0.004   0.002  0.00  0.00    -0.010 C 
ENDBRANCH  10  12
ENDBRANCH   9  10
ENDBRANCH   8   9
ENDBRANCH   1   8
TORSDOF 6
ENDMDL
MODEL      202
REMARK  Name = ZINC000038220839
REMARK                            x       y       z     vdW  Elec       q    Type
REMARK                         _______ _______ _______ _____ _____    ______ ____
ROOT
ATOM      1  C   LIG    1       -0.018   1.503   0.010  0.00  0.00    +0.140 C 
ATOM      2  C   LIG    1        0.002  -0.004   0.002  0.00  0.00    +0.180 A 
ATOM      3  C   LIG    1        0.005  -0.676  -1.219  0.00  0.00    -0.100 A 
ATOM      4  C   LIG    1        0.024  -2.043  -1.245  0.00  0.00    -0.010 A 
ATOM      5  C   LIG    1        0.039  -2.730  -0.017  0.00  0.00    -0.100 A 
ATOM      6  C   LIG    1        0.059  -4.133   0.035  0.00  0.00    +0.040 A 
ATOM      7  C   LIG    1        0.074  -4.761   1.242  0.00  0.00    +0.020 A 
ATOM      8  C   LIG    1        0.069  -4.030   2.429  0.00  0.00    +0.040 A 
ATOM      9  C   LIG    1        0.050  -2.670   2.415  0.00  0.00    +0.050 A 
ATOM     10  C   LIG    1        0.035  -1.984   1.188  0.00  0.00    +0.130 A 
ATOM     11  C   LIG    1        0.028  -2.793  -2.553  0.00  0.00    +0.120 C 
ATOM     12 CL   LIG    1       -0.013   0.221  -2.705  0.00  0.00    -0.050 Cl
ATOM     13  N   LIG    1        0.022  -0.648   1.144  0.00  0.00    -0.470 NA
ENDROOT
TORSDOF 0
ENDMDL
MODEL      203
REMARK  Name = ZINC000299754579
REMARK                            x       y       z     vdW  Elec       q    Type
REMARK                         _______ _______ _______ _____ _____    ______ ____
ROOT
ATOM      1  C   LIG    1       -0.018   1.491   0.010  0.00  0.00    +0.060 C 
ATOM      2  C   LIG    1        0.002  -0.004   0.002  0.00  0.00    -0.100 C 
ATOM      3  C   LIG    1       -0.129  -0.698  -1.047  0.00  0.00    -0.040 C 
ATOM      4  C   LIG    1       -0.856  -0.703  -2.292  0.00  0.00    -0.050 A 
ATOM      5  C   LIG    1       -0.740  -0.152  -3.525  0.00  0.00    +0.020 A 
ATOM      6  C   LIG    1       -1.740  -0.383  -4.464  0.00  0.00    +0.000 A 
ATOM      7  C   LIG    1       -2.844  -1.165  -4.173  0.00  0.00    +0.000 A 
ATOM      8  C   LIG    1       -2.981  -1.774  -2.924  0.00  0.00    +0.030 A 
ATOM      9  C   LIG    1       -2.004  -1.563  -2.027  0.00  0.00    -0.090 A 
ATOM     10  C   LIG    1       -1.811  -2.092  -0.616  0.00  0.00    +0.080 C 
ATOM     11  C   LIG    1       -2.086  -0.884   0.257  0.00  0.00    -0.020 C 
ATOM     12  C   LIG    1       -1.532  -0.837   1.656  0.00  0.00    +0.040 C 
ATOM     13  C   LIG    1        0.024  -0.682   1.373  0.00  0.00    +0.050 C 
ENDROOT
TORSDOF 0
ENDMDL
MODEL      204
REMARK  Name = ZINC000005819409
REMARK                            x       y       z     vdW  Elec       q    Type
REMARK                         _______ _______ _______ _____ _____    ______ ____
ROOT
ATOM      1  C   LIG    1       -1.512  -4.727   2.276  0.00  0.00    +0.000 C 
ENDROOT
BRANCH   1   2
ATOM      2  C   LIG    1       -2.025  -4.216   0.928  0.00  0.00    +0.040 C 
BRANCH   2   4
ATOM      3  C   LIG    1       -1.413  -2.041   0.005  0.00  0.00    -0.050 C 
ATOM      4  C   LIG    1       -2.046  -2.709   0.936  0.00  0.00    -0.050 C 
BRANCH   3   5
ATOM      5  C   LIG    1       -1.433  -0.534   0.013  0.00  0.00    +0.040 C 
BRANCH   5   7
ATOM      6  C   LIG    1       -0.019   1.526   0.010  0.00  0.00    +0.000 C 
ATOM      7  C   LIG    1        0.002  -0.004   0.002  0.00  0.00    +0.000 C 
ENDBRANCH   5   7
ENDBRANCH   3   5
ENDBRANCH   2   4
ENDBRANCH   1   2
BRANCH   1   8
ATOM      8  C   LIG    1       -1.491  -6.256   2.268  0.00  0.00    +0.000 C 
BRANCH   8   9
ATOM      9  C   LIG    1       -0.978  -6.767   3.616  0.00  0.00    +0.000 C 
BRANCH   9  10
ATOM     10  C   LIG    1       -0.958  -8.297   3.607  0.00  0.00    +0.000 C 
BRANCH  10  11
ATOM     11  C   LIG    1       -0.444  -8.807   4.955  0.00  0.00    +0.020 C 
BRANCH  11  12
ATOM     12  C   LIG    1       -0.424 -10.337   4.947  0.00  0.00    +0.150 C 
BRANCH  12  13
ATOM     13  O   LIG    1        0.056 -10.814   6.206  0.00  0.00    -0.580 OA
ATOM     14  H   LIG    1        0.096 -11.778   6.272  0.00  0.00    +0.380 HD
ENDBRANCH  12  13
ENDBRANCH  11  12
ENDBRANCH  10  11
ENDBRANCH   9  10
ENDBRANCH   8   9
ENDBRANCH   1   8
TORSDOF 10
ENDMDL
MODEL      205
REMARK  Name = ZINC000038996565
REMARK                            x       y       z     vdW  Elec       q    Type
REMARK                         _______ _______ _______ _____ _____    ______ ____
ROOT
ATOM      1  C   LIG    1        0.718  -0.497  -1.257  0.00  0.00    +0.000 C 
ATOM      2  C   LIG    1       -0.026   0.005  -2.495  0.00  0.00    +0.020 C 
ATOM      3  C   LIG    1        0.666  -0.524  -3.755  0.00  0.00    +0.060 C 
ATOM      4  C   LIG    1        2.124  -0.067  -3.759  0.00  0.00    -0.130 C 
ATOM      5  C   LIG    1        2.883  -0.496  -2.505  0.00  0.00    +0.030 C 
ATOM      6  C   LIG    1        2.863  -0.390  -5.062  0.00  0.00    +0.050 C 
ATOM      7  C   LIG    1        2.364   0.981  -5.548  0.00  0.00    +0.010 C 
ATOM      8  C   LIG    1        2.294   1.396  -4.093  0.00  0.00    +0.370 C 
ATOM      9  O   LIG    1        2.350   2.433  -3.477  0.00  0.00    -0.420 OA
ATOM     10  C   LIG    1        2.153   0.033  -1.267  0.00  0.00    +0.020 C 
ENDROOT
BRANCH   1  12
ATOM     11  C   LIG    1       -0.019   1.526   0.010  0.00  0.00    +0.020 C 
ATOM     12  C   LIG    1        0.002  -0.004   0.002  0.00  0.00    -0.060 C 
ATOM     13  C   LIG    1       -1.433  -0.534   0.013  0.00  0.00    +0.020 C 
ATOM     14  C   LIG    1        0.742  -0.511   1.242  0.00  0.00    +0.020 C 
ENDBRANCH   1  12
TORSDOF 1
ENDMDL
MODEL      206
REMARK  Name = ZINC000071785513
REMARK                            x       y       z     vdW  Elec       q    Type
REMARK                         _______ _______ _______ _____ _____    ______ ____
ROOT
ATOM      1  C   LIG    1       -0.315   0.521   0.738  0.00  0.00    +0.080 C 
ATOM      2  C   LIG    1       -0.797  -0.116  -0.539  0.00  0.00    -0.130 C 
ATOM      3  C   LIG    1        0.111  -0.621  -1.442  0.00  0.00    -0.100 C 
ATOM      4  C   LIG    1        1.587  -0.408  -1.225  0.00  0.00    +0.070 C 
ATOM      5  C   LIG    1       -2.274  -0.200  -0.829  0.00  0.00    +0.080 C 
ENDROOT
BRANCH   3   6
ATOM      6  C   LIG    1       -0.329  -1.321  -2.542  0.00  0.00    -0.100 C 
ATOM      7  C   LIG    1       -0.518  -0.671  -3.740  0.00  0.00    -0.130 C 
ATOM      8  C   LIG    1       -0.967  -1.443  -4.954  0.00  0.00    +0.070 C 
ATOM      9  C   LIG    1       -0.277   0.814  -3.839  0.00  0.00    +0.080 C 
ATOM     10  C   LIG    1       -0.604  -2.799  -2.435  0.00  0.00    +0.070 C 
ENDBRANCH   3   6
TORSDOF 1
ENDMDL
MODEL      207
REMARK  Name = ZINC000575421842
REMARK                            x       y       z     vdW  Elec       q    Type
REMARK                         _______ _______ _______ _____ _____    ______ ____
ROOT
ATOM      1  C   LIG    1       -0.019   1.526   0.010  0.00  0.00    +0.020 C 
ATOM      2  C   LIG    1        0.002  -0.004   0.002  0.00  0.00    -0.050 C 
ATOM      3  C   LIG    1        0.718  -0.497  -1.257  0.00  0.00    +0.010 C 
ATOM      4  C   LIG    1        1.936  -1.333  -0.857  0.00  0.00    -0.020 C 
ATOM      5  C   LIG    1        2.894  -0.475  -0.028  0.00  0.00    +0.010 C 
ATOM      6  C   LIG    1        2.178   0.019   1.231  0.00  0.00    +0.010 C 
ATOM      7  C   LIG    1        1.479  -2.534  -0.026  0.00  0.00    +0.010 C 
ATOM      8  C   LIG    1        0.763  -2.041   1.233  0.00  0.00    +0.010 C 
ATOM      9  C   LIG    1       -1.433  -0.534   0.013  0.00  0.00    +0.020 C 
ATOM     10  C   LIG    1        0.742  -0.511   1.242  0.00  0.00    -0.050 C 
ATOM     11  C   LIG    1        0.026  -0.018   2.500  0.00  0.00    +0.020 C 
ENDROOT
TORSDOF 0
ENDMDL
MODEL      208
REMARK  Name = ZINC000575422936
REMARK                            x       y       z     vdW  Elec       q    Type
REMARK                         _______ _______ _______ _____ _____    ______ ____
ROOT
ATOM      1  C   LIG    1       -2.014   0.041  -1.275  0.00  0.00    -0.120 A 
ATOM      2  C   LIG    1       -1.365  -0.283  -2.453  0.00  0.00    +0.050 A 
ATOM      3  C   LIG    1       -1.887   0.126  -3.664  0.00  0.00    -0.080 A 
ATOM      4  C   LIG    1       -3.063   0.864  -3.699  0.00  0.00    +0.210 A 
ATOM      5  C   LIG    1       -3.712   1.187  -2.514  0.00  0.00    -0.080 A 
ATOM      6  C   LIG    1       -3.188   0.770  -1.306  0.00  0.00    +0.050 A 
ENDROOT
BRANCH   4   7
ATOM      7  N   LIG    1       -3.593   1.278  -4.923  0.00  0.00    -0.880 N 
ATOM      8  H   LIG    1       -4.415   1.794  -4.946  0.00  0.00    +0.400 HD
ATOM      9  H   LIG    1       -3.140   1.052  -5.750  0.00  0.00    +0.400 HD
ENDBRANCH   4   7
BRANCH   1  10
ATOM     10  C   LIG    1       -1.442  -0.407   0.045  0.00  0.00    +0.040 C 
BRANCH  10  12
ATOM     11  C   LIG    1        0.814   0.339  -0.728  0.00  0.00    +0.010 C 
ATOM     12  C   LIG    1       -0.223   0.451   0.391  0.00  0.00    -0.020 C 
ATOM     13  C   LIG    1       -0.655   1.912   0.542  0.00  0.00    +0.010 C 
ENDBRANCH  10  12
BRANCH  10  14
ATOM     14  C   LIG    1       -1.020  -1.875  -0.053  0.00  0.00    -0.020 C 
ATOM     15  C   LIG    1       -2.231  -2.728  -0.436  0.00  0.00    +0.010 C 
ATOM     16  C   LIG    1       -0.475  -2.340   1.299  0.00  0.00    +0.010 C 
ENDBRANCH  10  14
ENDBRANCH   1  10
TORSDOF 4
ENDMDL
MODEL      209
REMARK  Name = ZINC000575424306
REMARK                            x       y       z     vdW  Elec       q    Type
REMARK                         _______ _______ _______ _____ _____    ______ ____
ROOT
ATOM      1  C   LIG    1       -0.019   1.526   0.010  0.00  0.00    +0.040 C 
ATOM      2  C   LIG    1        0.002  -0.004   0.002  0.00  0.00    -0.060 C 
ATOM      3  C   LIG    1        0.718  -0.497  -1.257  0.00  0.00    +0.050 C 
ATOM      4  C   LIG    1        1.936  -1.333  -0.857  0.00  0.00    +0.040 C 
ATOM      5  C   LIG    1        2.894  -0.475  -0.028  0.00  0.00    +0.020 C 
ATOM      6  C   LIG    1        2.178   0.019   1.231  0.00  0.00    +0.030 C 
ATOM      7 CL   LIG    1        2.780  -1.915  -2.340  0.00  0.00    -0.190 Cl
ATOM      8  C   LIG    1        1.479  -2.534  -0.026  0.00  0.00    +0.020 C 
ATOM      9  C   LIG    1        0.763  -2.041   1.233  0.00  0.00    +0.030 C 
ATOM     10  C   LIG    1       -1.433  -0.534   0.013  0.00  0.00    +0.040 C 
ATOM     11  C   LIG    1        0.742  -0.511   1.242  0.00  0.00    +0.000 C 
ENDROOT
TORSDOF 0
ENDMDL
MODEL      210
REMARK  Name = ZINC000306327673
REMARK                            x       y       z     vdW  Elec       q    Type
REMARK                         _______ _______ _______ _____ _____    ______ ____
ROOT
ATOM      1  C   LIG    1       -1.412  -0.526   0.013  0.00  0.00    +0.060 A 
ATOM      2  N   LIG    1       -1.929  -1.277  -0.900  0.00  0.00    -0.470 NA
ATOM      3  C   LIG    1       -3.183  -1.646  -0.735  0.00  0.00    +0.080 A 
ATOM      4  C   LIG    1       -3.756  -1.180   0.378  0.00  0.00    -0.080 A 
ATOM      5  S   LIG    1       -2.561  -0.214   1.240  0.00  0.00    +0.120 S 
ENDROOT
BRANCH   3   6
ATOM      6  C   LIG    1       -3.912  -2.522  -1.722  0.00  0.00    +0.070 C 
ATOM      7  C   LIG    1       -4.363  -3.869  -1.133  0.00  0.00    +0.020 C 
ATOM      8  C   LIG    1       -5.667  -3.689  -1.928  0.00  0.00    +0.010 C 
ATOM      9  C   LIG    1       -5.402  -2.175  -1.869  0.00  0.00    +0.020 C 
ENDBRANCH   3   6
BRANCH   1  11
ATOM     10  C   LIG    1       -0.019   1.526   0.010  0.00  0.00    +0.040 C 
ATOM     11  C   LIG    1        0.002  -0.004   0.002  0.00  0.00    +0.080 C 
ATOM     12  C   LIG    1        0.742  -0.511   1.242  0.00  0.00    +0.040 C 
ENDBRANCH   1  11
TORSDOF 2
ENDMDL
MODEL      211
REMARK  Name = ZINC000039190303
REMARK                            x       y       z     vdW  Elec       q    Type
REMARK                         _______ _______ _______ _____ _____    ______ ____
ROOT
ATOM      1  C   LIG    1        0.707  -0.490  -1.238  0.00  0.00    +0.050 A 
ATOM      2  C   LIG    1        2.022  -0.733  -1.327  0.00  0.00    -0.050 A 
ATOM      3  C   LIG    1        2.263  -1.183  -2.703  0.00  0.00    -0.120 A 
ATOM      4  C   LIG    1        3.394  -1.580  -3.414  0.00  0.00    +0.080 A 
ATOM      5  C   LIG    1        3.271  -1.954  -4.736  0.00  0.00    -0.050 A 
ATOM      6  C   LIG    1        2.028  -1.935  -5.355  0.00  0.00    +0.060 A 
ATOM      7  C   LIG    1        0.903  -1.544  -4.662  0.00  0.00    +0.050 A 
ATOM      8 CL   LIG    1        4.674  -2.451  -5.628  0.00  0.00    -0.060 Cl
ATOM      9  C   LIG    1        1.005  -1.164  -3.330  0.00  0.00    +0.050 A 
ATOM     10  O   LIG    1        0.108  -0.749  -2.413  0.00  0.00    -0.190 OA
ENDROOT
BRANCH   1  12
ATOM     11  C   LIG    1       -0.019   1.526   0.010  0.00  0.00    +0.040 C 
ATOM     12  C   LIG    1        0.002  -0.004   0.002  0.00  0.00    +0.140 C 
ENDBRANCH   1  12
TORSDOF 1
ENDMDL
MODEL      212
REMARK  Name = ZINC000001589913
REMARK                            x       y       z     vdW  Elec       q    Type
REMARK                         _______ _______ _______ _____ _____    ______ ____
ROOT
ATOM      1  C   LIG    1        0.652  -0.570  -1.138  0.00  0.00    +0.150 C 
ATOM      2  C   LIG    1       -0.372  -0.785  -2.254  0.00  0.00    -0.010 C 
ATOM      3  C   LIG    1       -1.466  -1.737  -1.766  0.00  0.00    +0.020 C 
ATOM      4  C   LIG    1       -0.841  -3.079  -1.382  0.00  0.00    +0.000 C 
ATOM      5  C   LIG    1        0.183  -2.864  -0.266  0.00  0.00    +0.020 C 
ATOM      6  C   LIG    1        1.277  -1.913  -0.754  0.00  0.00    +0.000 C 
ENDROOT
BRANCH   6   7
ATOM      7  C   LIG    1        2.301  -1.698   0.362  0.00  0.00    +0.000 C 
ATOM      8  C   LIG    1        2.927  -3.040   0.746  0.00  0.00    +0.000 C 
ATOM      9  C   LIG    1        3.951  -2.825   1.863  0.00  0.00    +0.000 C 
ATOM     10  C   LIG    1        5.045  -1.873   1.374  0.00  0.00    +0.000 C 
ATOM     11  C   LIG    1        4.420  -0.531   0.990  0.00  0.00    +0.000 C 
ATOM     12  C   LIG    1        3.396  -0.746  -0.126  0.00  0.00    +0.000 C 
ENDBRANCH   6   7
BRANCH   1  14
ATOM     13  C   LIG    1       -0.017   1.425   0.010  0.00  0.00    +0.190 C 
ATOM     14  O   LIG    1        0.002  -0.004   0.002  0.00  0.00    -0.370 OA
ENDBRANCH   1  14
TORSDOF 2
ENDMDL
MODEL      213
REMARK  Name = ZINC000001589911
REMARK                            x       y       z     vdW  Elec       q    Type
REMARK                         _______ _______ _______ _____ _____    ______ ____
ROOT
ATOM      1  C   LIG    1        0.643  -0.572  -1.129  0.00  0.00    +0.150 C 
ATOM      2  C   LIG    1       -0.381  -0.787  -2.246  0.00  0.00    -0.010 C 
ATOM      3  C   LIG    1        0.317  -1.382  -3.470  0.00  0.00    +0.000 C 
ATOM      4  C   LIG    1        0.951  -2.723  -3.095  0.00  0.00    +0.000 C 
ATOM      5  C   LIG    1        1.975  -2.508  -1.978  0.00  0.00    +0.020 C 
ATOM      6  C   LIG    1        1.277  -1.913  -0.754  0.00  0.00    +0.000 C 
ENDROOT
BRANCH   6   7
ATOM      7  C   LIG    1        2.301  -1.698   0.362  0.00  0.00    +0.000 C 
ATOM      8  C   LIG    1        2.836  -3.052   0.832  0.00  0.00    +0.000 C 
ATOM      9  C   LIG    1        3.860  -2.837   1.948  0.00  0.00    +0.000 C 
ATOM     10  C   LIG    1        5.018  -1.987   1.421  0.00  0.00    +0.000 C 
ATOM     11  C   LIG    1        4.483  -0.632   0.951  0.00  0.00    +0.000 C 
ATOM     12  C   LIG    1        3.459  -0.848  -0.165  0.00  0.00    +0.000 C 
ENDBRANCH   6   7
BRANCH   1  14
ATOM     13  C   LIG    1       -0.037   1.412   0.030  0.00  0.00    +0.190 C 
ATOM     14  O   LIG    1       -0.009  -0.016   0.014  0.00  0.00    -0.380 OA
ENDBRANCH   1  14
TORSDOF 2
ENDMDL
MODEL      214
REMARK  Name = ZINC000039251143
REMARK                            x       y       z     vdW  Elec       q    Type
REMARK                         _______ _______ _______ _____ _____    ______ ____
ROOT
ATOM      1  C   LIG    1       -1.200  -0.637   0.010  0.00  0.00    +0.130 A 
ATOM      2  C   LIG    1       -2.373   0.099   0.019  0.00  0.00    -0.070 A 
ATOM      3  C   LIG    1       -3.596  -0.546   0.028  0.00  0.00    +0.050 A 
ATOM      4  C   LIG    1       -3.655  -1.929   0.027  0.00  0.00    -0.120 A 
ATOM      5  C   LIG    1       -2.494  -2.674   0.017  0.00  0.00    +0.060 A 
ATOM      6  C   LIG    1       -4.993  -2.622   0.036  0.00  0.00    +0.100 C 
ATOM      7  C   LIG    1       -1.257  -2.034   0.003  0.00  0.00    -0.080 A 
ENDROOT
BRANCH   7   8
ATOM      8  C   LIG    1       -0.006  -2.831  -0.008  0.00  0.00    -0.040 A 
ATOM      9  C   LIG    1        0.993  -2.551  -0.938  0.00  0.00    +0.030 A 
ATOM     10  C   LIG    1        2.155  -3.296  -0.944  0.00  0.00    +0.000 A 
ATOM     11  C   LIG    1        2.329  -4.318  -0.029  0.00  0.00    +0.000 A 
ATOM     12  C   LIG    1        1.341  -4.600   0.897  0.00  0.00    +0.000 A 
ATOM     13  C   LIG    1        0.177  -3.859   0.916  0.00  0.00    +0.010 A 
ENDBRANCH   7   8
BRANCH   1  15
ATOM     14  C   LIG    1       -0.017   1.425   0.010  0.00  0.00    +0.240 C 
ATOM     15  O   LIG    1        0.002  -0.004   0.002  0.00  0.00    -0.310 OA
ENDBRANCH   1  15
TORSDOF 2
ENDMDL
MODEL      215
REMARK  Name = ZINC000003958182
REMARK                            x       y       z     vdW  Elec       q    Type
REMARK                         _______ _______ _______ _____ _____    ______ ____
ROOT
ATOM      1  C   LIG    1       -0.018   1.503   0.010  0.00  0.00    +0.080 C 
ATOM      2  C   LIG    1        0.002  -0.004   0.002  0.00  0.00    -0.110 A 
ATOM      3  C   LIG    1        0.006  -0.686  -1.207  0.00  0.00    +0.020 A 
ATOM      4  C   LIG    1        0.023  -2.063  -1.236  0.00  0.00    -0.010 A 
ATOM      5  C   LIG    1        0.039  -2.780  -0.045  0.00  0.00    +0.090 A 
ATOM      6  N   LIG    1        0.058  -4.126   0.250  0.00  0.00    -0.590 N 
ATOM      7  H   LIG    1        0.062  -4.840  -0.407  0.00  0.00    +0.410 HD
ATOM      8  C   LIG    1        0.069  -4.306   1.604  0.00  0.00    +0.080 A 
ATOM      9  C   LIG    1        0.055  -3.108   2.220  0.00  0.00    -0.170 A 
ATOM     10  C   LIG    1        0.060  -2.912   3.714  0.00  0.00    +0.100 C 
ATOM     11  C   LIG    1       -0.326  -4.238   4.380  0.00  0.00    -0.020 C 
ATOM     12  C   LIG    1        0.523  -5.367   3.789  0.00  0.00    +0.030 C 
ATOM     13  C   LIG    1       -0.075  -4.145   5.886  0.00  0.00    +0.030 C 
ATOM     14  C   LIG    1        0.094  -5.626   2.341  0.00  0.00    +0.100 C 
ATOM     15  C   LIG    1        0.036  -2.084   1.180  0.00  0.00    -0.090 A 
ATOM     16  C   LIG    1        0.023  -0.688   1.185  0.00  0.00    +0.050 A 
ENDROOT
TORSDOF 0
ENDMDL
MODEL      216
REMARK  Name = ZINC000003958181
REMARK                            x       y       z     vdW  Elec       q    Type
REMARK                         _______ _______ _______ _____ _____    ______ ____
ROOT
ATOM      1  C   LIG    1       -0.018   1.503   0.010  0.00  0.00    +0.080 C 
ATOM      2  C   LIG    1        0.002  -0.004   0.002  0.00  0.00    -0.110 A 
ATOM      3  C   LIG    1        0.006  -0.686  -1.207  0.00  0.00    +0.020 A 
ATOM      4  C   LIG    1        0.024  -2.063  -1.236  0.00  0.00    -0.010 A 
ATOM      5  C   LIG    1        0.039  -2.780  -0.045  0.00  0.00    +0.090 A 
ATOM      6  N   LIG    1        0.059  -4.126   0.250  0.00  0.00    -0.590 N 
ATOM      7  H   LIG    1        0.067  -4.840  -0.407  0.00  0.00    +0.410 HD
ATOM      8  C   LIG    1        0.066  -4.306   1.605  0.00  0.00    +0.080 A 
ATOM      9  C   LIG    1        0.054  -3.108   2.220  0.00  0.00    -0.170 A 
ATOM     10  C   LIG    1        0.058  -2.912   3.714  0.00  0.00    +0.100 C 
ATOM     11  C   LIG    1        0.484  -4.228   4.376  0.00  0.00    -0.020 C 
ATOM     12  C   LIG    1       -0.340  -5.379   3.793  0.00  0.00    +0.030 C 
ATOM     13  C   LIG    1        0.246  -4.141   5.885  0.00  0.00    +0.030 C 
ATOM     14  C   LIG    1        0.083  -5.626   2.341  0.00  0.00    +0.100 C 
ATOM     15  C   LIG    1        0.036  -2.084   1.180  0.00  0.00    -0.090 A 
ATOM     16  C   LIG    1        0.023  -0.688   1.185  0.00  0.00    +0.050 A 
ENDROOT
TORSDOF 0
ENDMDL
MODEL      217
REMARK  Name = ZINC000039275787
REMARK                            x       y       z     vdW  Elec       q    Type
REMARK                         _______ _______ _______ _____ _____    ______ ____
ROOT
ATOM      1  C   LIG    1       -0.018   1.503   0.010  0.00  0.00    +0.090 C 
ATOM      2  C   LIG    1        0.002  -0.004   0.002  0.00  0.00    -0.110 A 
ATOM      3  C   LIG    1        0.006  -0.686  -1.195  0.00  0.00    +0.040 A 
ATOM      4  C   LIG    1        0.025  -2.072  -1.217  0.00  0.00    -0.020 A 
ATOM      5  C   LIG    1        0.040  -2.785  -0.038  0.00  0.00    +0.060 A 
ATOM      6  C   LIG    1        0.037  -2.108   1.180  0.00  0.00    -0.100 A 
ATOM      7  C   LIG    1        0.050  -2.550   2.587  0.00  0.00    -0.100 A 
ATOM      8  C   LIG    1        0.064  -3.802   3.198  0.00  0.00    +0.060 A 
ATOM      9  C   LIG    1        0.065  -3.892   4.573  0.00  0.00    -0.020 A 
ATOM     10  C   LIG    1        0.052  -2.743   5.349  0.00  0.00    +0.040 A 
ATOM     11  C   LIG    1        0.041  -1.498   4.757  0.00  0.00    -0.110 A 
ATOM     12  C   LIG    1        0.026  -0.257   5.612  0.00  0.00    +0.090 C 
ATOM     13  C   LIG    1        0.036  -1.387   3.369  0.00  0.00    +0.140 A 
ATOM     14  N   LIG    1        0.022  -0.292   2.524  0.00  0.00    -0.610 N 
ATOM     15  H   LIG    1        0.014   0.633   2.814  0.00  0.00    +0.420 HD
ATOM     16  C   LIG    1        0.023  -0.706   1.204  0.00  0.00    +0.140 A 
ENDROOT
TORSDOF 0
ENDMDL
MODEL      218
REMARK  Name = ZINC000019879230
REMARK                            x       y       z     vdW  Elec       q    Type
REMARK                         _______ _______ _______ _____ _____    ______ ____
ROOT
ATOM      1  C   LIG    1        0.020   0.045   2.505  0.00  0.00    +0.310 C 
ENDROOT
BRANCH   1   8
ATOM      2  C   LIG    1       -0.018   1.503   0.010  0.00  0.00    +0.090 C 
ATOM      3  C   LIG    1        0.002  -0.004   0.002  0.00  0.00    -0.070 A 
ATOM      4  C   LIG    1        0.006  -0.689  -1.199  0.00  0.00    +0.000 A 
ATOM      5  C   LIG    1        0.025  -2.071  -1.206  0.00  0.00    +0.010 A 
ATOM      6  C   LIG    1        0.040  -2.768  -0.013  0.00  0.00    -0.010 A 
ATOM      7  C   LIG    1        0.037  -2.084   1.188  0.00  0.00    +0.020 A 
ATOM      8  C   LIG    1        0.023  -0.702   1.196  0.00  0.00    -0.110 A 
ENDBRANCH   1   8
BRANCH   1   9
ATOM      9  N   LIG    1       -1.344   0.481   2.815  0.00  0.00    -0.740 N 
ATOM     10  H   LIG    1       -2.070   0.272   2.207  0.00  0.00    +0.400 HD
BRANCH   9  11
ATOM     11  C   LIG    1       -1.598   1.197   3.987  0.00  0.00    +0.210 A 
ATOM     12  C   LIG    1       -0.559   1.501   4.857  0.00  0.00    -0.080 A 
ATOM     13  C   LIG    1       -0.814   2.209   6.014  0.00  0.00    +0.050 A 
ATOM     14  C   LIG    1       -2.102   2.615   6.309  0.00  0.00    -0.060 A 
ATOM     15  C   LIG    1       -3.140   2.314   5.445  0.00  0.00    +0.050 A 
ATOM     16  C   LIG    1       -2.891   1.611   4.283  0.00  0.00    -0.080 A 
ENDBRANCH   9  11
ENDBRANCH   1   9
TORSDOF 3
ENDMDL
MODEL      219
REMARK  Name = ZINC000001589910
REMARK                            x       y       z     vdW  Elec       q    Type
REMARK                         _______ _______ _______ _____ _____    ______ ____
ROOT
ATOM      1  C   LIG    1        0.652  -0.570  -1.138  0.00  0.00    +0.150 C 
ATOM      2  C   LIG    1        2.140  -0.759  -0.835  0.00  0.00    -0.010 C 
ATOM      3  C   LIG    1        2.301  -1.698   0.362  0.00  0.00    +0.020 C 
ATOM      4  C   LIG    1        1.671  -3.053   0.037  0.00  0.00    +0.000 C 
ATOM      5  C   LIG    1        0.183  -2.864  -0.266  0.00  0.00    +0.020 C 
ATOM      6  C   LIG    1        0.021  -1.926  -1.463  0.00  0.00    +0.000 C 
ENDROOT
BRANCH   6   7
ATOM      7  C   LIG    1       -1.466  -1.737  -1.766  0.00  0.00    +0.000 C 
ATOM      8  C   LIG    1       -1.628  -0.799  -2.963  0.00  0.00    +0.000 C 
ATOM      9  C   LIG    1       -3.116  -0.610  -3.266  0.00  0.00    +0.000 C 
ATOM     10  C   LIG    1       -3.747  -1.965  -3.591  0.00  0.00    +0.000 C 
ATOM     11  C   LIG    1       -3.585  -2.904  -2.394  0.00  0.00    +0.000 C 
ATOM     12  C   LIG    1       -2.097  -3.092  -2.091  0.00  0.00    +0.000 C 
ENDBRANCH   6   7
BRANCH   1  14
ATOM     13  C   LIG    1       -0.017   1.425   0.010  0.00  0.00    +0.190 C 
ATOM     14  O   LIG    1        0.002  -0.004   0.002  0.00  0.00    -0.370 OA
ENDBRANCH   1  14
TORSDOF 2
ENDMDL
MODEL      220
REMARK  Name = ZINC000001589912
REMARK                            x       y       z     vdW  Elec       q    Type
REMARK                         _______ _______ _______ _____ _____    ______ ____
ROOT
ATOM      1  C   LIG    1        0.622  -0.595  -1.005  0.00  0.00    +0.150 C 
ATOM      2  C   LIG    1        2.110  -0.784  -0.703  0.00  0.00    -0.010 C 
ATOM      3  C   LIG    1        2.830  -1.261  -1.965  0.00  0.00    +0.000 C 
ATOM      4  C   LIG    1        2.230  -2.592  -2.423  0.00  0.00    +0.000 C 
ATOM      5  C   LIG    1        0.742  -2.403  -2.726  0.00  0.00    +0.020 C 
ATOM      6  C   LIG    1        0.021  -1.926  -1.463  0.00  0.00    +0.000 C 
ENDROOT
BRANCH   6   7
ATOM      7  C   LIG    1       -1.466  -1.737  -1.766  0.00  0.00    +0.000 C 
ATOM      8  C   LIG    1       -1.628  -0.799  -2.963  0.00  0.00    +0.000 C 
ATOM      9  C   LIG    1       -3.116  -0.610  -3.266  0.00  0.00    +0.000 C 
ATOM     10  C   LIG    1       -3.747  -1.965  -3.591  0.00  0.00    +0.000 C 
ATOM     11  C   LIG    1       -3.585  -2.904  -2.394  0.00  0.00    +0.000 C 
ATOM     12  C   LIG    1       -2.097  -3.092  -2.091  0.00  0.00    +0.000 C 
ENDBRANCH   6   7
BRANCH   1  14
ATOM     13  C   LIG    1       -0.099   1.272   0.314  0.00  0.00    +0.190 C 
ATOM     14  O   LIG    1       -0.051  -0.149   0.174  0.00  0.00    -0.380 OA
ENDBRANCH   1  14
TORSDOF 2
ENDMDL
MODEL      221
REMARK  Name = ZINC000001869244
REMARK                            x       y       z     vdW  Elec       q    Type
REMARK                         _______ _______ _______ _____ _____    ______ ____
ROOT
ATOM      1  C   LIG    1       -0.018   1.503   0.010  0.00  0.00    +0.100 C 
ATOM      2  C   LIG    1        0.002  -0.004   0.002  0.00  0.00    -0.120 A 
ATOM      3  C   LIG    1        0.006  -0.684  -1.197  0.00  0.00    +0.070 A 
ATOM      4  C   LIG    1        0.025  -2.077  -1.202  0.00  0.00    -0.100 A 
ATOM      5  C   LIG    1        0.041  -2.784   0.009  0.00  0.00    +0.140 A 
ATOM      6  N   LIG    1        0.058  -4.137  -0.276  0.00  0.00    -0.620 N 
ATOM      7  H   LIG    1        0.072  -4.844   0.389  0.00  0.00    +0.420 HD
ATOM      8  C   LIG    1        0.054  -4.339  -1.644  0.00  0.00    +0.140 A 
ATOM      9  C   LIG    1        0.067  -5.495  -2.420  0.00  0.00    -0.020 A 
ATOM     10  C   LIG    1        0.060  -5.402  -3.795  0.00  0.00    +0.050 A 
ATOM     11  C   LIG    1        0.039  -4.163  -4.418  0.00  0.00    -0.020 A 
ATOM     12  C   LIG    1        0.026  -3.008  -3.667  0.00  0.00    +0.070 A 
ATOM     13  C   LIG    1        0.036  -2.079   1.209  0.00  0.00    -0.020 A 
ATOM     14  C   LIG    1        0.034  -3.087  -2.276  0.00  0.00    -0.110 A 
ATOM     15  C   LIG    1        0.023  -0.701   1.200  0.00  0.00    +0.050 A 
ENDROOT
TORSDOF 0
ENDMDL
MODEL      222
REMARK  Name = ZINC000033820542
REMARK                            x       y       z     vdW  Elec       q    Type
REMARK                         _______ _______ _______ _____ _____    ______ ____
ROOT
ATOM      1  C   LIG    1       -4.081  -2.626   2.274  0.00  0.00    +0.010 C 
ENDROOT
BRANCH   1   2
ATOM      2  C   LIG    1       -2.711  -1.975   2.071  0.00  0.00    +0.050 C 
BRANCH   2   4
ATOM      3  C   LIG    1       -1.475  -2.049  -0.033  0.00  0.00    -0.050 C 
ATOM      4  C   LIG    1       -1.962  -2.708   0.989  0.00  0.00    -0.050 C 
BRANCH   3   5
ATOM      5  C   LIG    1       -1.513  -0.542  -0.044  0.00  0.00    +0.050 C 
BRANCH   5   7
ATOM      6  C   LIG    1       -0.151   1.531  -0.342  0.00  0.00    +0.000 C 
ATOM      7  C   LIG    1       -0.112   0.002  -0.330  0.00  0.00    +0.000 C 
ENDBRANCH   5   7
ENDBRANCH   3   5
ENDBRANCH   2   4
ENDBRANCH   1   2
BRANCH   1   8
ATOM      8  C   LIG    1       -4.842  -1.882   3.373  0.00  0.00    +0.000 C 
BRANCH   8   9
ATOM      9  C   LIG    1       -6.212  -2.533   3.575  0.00  0.00    +0.000 C 
BRANCH   9  10
ATOM     10  C   LIG    1       -6.973  -1.789   4.674  0.00  0.00    +0.000 C 
BRANCH  10  11
ATOM     11  C   LIG    1       -8.343  -2.440   4.876  0.00  0.00    +0.020 C 
BRANCH  11  12
ATOM     12  C   LIG    1       -9.104  -1.696   5.975  0.00  0.00    +0.150 C 
BRANCH  12  13
ATOM     13  O   LIG    1      -10.383  -2.304   6.164  0.00  0.00    -0.580 OA
ATOM     14  H   LIG    1      -10.921  -1.882   6.848  0.00  0.00    +0.380 HD
ENDBRANCH  12  13
ENDBRANCH  11  12
ENDBRANCH  10  11
ENDBRANCH   9  10
ENDBRANCH   8   9
ENDBRANCH   1   8
TORSDOF 10
ENDMDL
MODEL      223
REMARK  Name = ZINC000196385009
REMARK                            x       y       z     vdW  Elec       q    Type
REMARK                         _______ _______ _______ _____ _____    ______ ____
ROOT
ATOM      1  C   LIG    1        1.317  -2.752  -0.025  0.00  0.00    -0.230 C 
ENDROOT
BRANCH   1   2
ATOM      2 SI   LIG    1        1.632  -0.916  -0.018  0.00  0.00    +1.030 Si
ATOM      3  C   LIG    1        2.618  -0.461   1.496  0.00  0.00    -0.240 C 
ATOM      4  C   LIG    1        2.588  -0.445  -1.546  0.00  0.00    -0.240 C 
BRANCH   2   6
ATOM      5  C   LIG    1       -0.016   1.306   0.009  0.00  0.00    +0.030 C 
ATOM      6  C   LIG    1        0.002  -0.004   0.002  0.00  0.00    -0.340 C 
ENDBRANCH   2   6
ENDBRANCH   1   2
BRANCH   1   7
ATOM      7  C   LIG    1        2.652  -3.499  -0.042  0.00  0.00    -0.230 C 
BRANCH   7   8
ATOM      8 SI   LIG    1        2.336  -5.335  -0.049  0.00  0.00    +1.030 Si
ATOM      9  C   LIG    1        1.351  -5.790  -1.563  0.00  0.00    -0.240 C 
ATOM     10  C   LIG    1        1.380  -5.806   1.479  0.00  0.00    -0.240 C 
BRANCH   8  11
ATOM     11  C   LIG    1        3.967  -6.247  -0.069  0.00  0.00    -0.340 C 
ATOM     12  C   LIG    1        3.984  -7.557  -0.077  0.00  0.00    +0.030 C 
ENDBRANCH   8  11
ENDBRANCH   7   8
ENDBRANCH   1   7
TORSDOF 5
ENDMDL
MODEL      224
REMARK  Name = ZINC000072225189
REMARK                            x       y       z     vdW  Elec       q    Type
REMARK                         _______ _______ _______ _____ _____    ______ ____
ROOT
ATOM      1  C   LIG    1        1.287  -0.735  -0.133  0.00  0.00    -0.140 A 
ATOM      2  C   LIG    1        1.322  -2.135  -0.105  0.00  0.00    +0.120 A 
ATOM      3  C   LIG    1        2.553  -2.761  -0.080  0.00  0.00    -0.030 A 
ATOM      4  C   LIG    1        3.708  -1.988  -0.084  0.00  0.00    +0.310 A 
ATOM      5  N   LIG    1        3.642  -0.666  -0.110  0.00  0.00    -0.520 NA
ATOM      6  C   LIG    1        2.490  -0.029  -0.140  0.00  0.00    +0.310 A 
ENDROOT
BRANCH   1   8
ATOM      7  C   LIG    1       -0.025   1.308  -0.192  0.00  0.00    +0.030 C 
ATOM      8  C   LIG    1       -0.004  -0.017  -0.160  0.00  0.00    +0.010 C 
ENDBRANCH   1   8
BRANCH   4   9
ATOM      9  O   LIG    1        4.920  -2.596  -0.060  0.00  0.00    -0.250 OA
BRANCH   9  10
ATOM     10  C   LIG    1        6.028  -1.817  -0.166  0.00  0.00    +0.090 A 
ATOM     11  C   LIG    1        6.473  -1.090   0.929  0.00  0.00    +0.010 A 
ATOM     12  C   LIG    1        7.599  -0.298   0.820  0.00  0.00    +0.020 A 
ATOM     13  C   LIG    1        8.283  -0.229  -0.380  0.00  0.00    +0.010 A 
ATOM     14  C   LIG    1        7.842  -0.952  -1.473  0.00  0.00    +0.020 A 
ATOM     15  C   LIG    1        6.719  -1.750  -1.367  0.00  0.00    +0.010 A 
ENDBRANCH   9  10
ENDBRANCH   4   9
TORSDOF 3
ENDMDL
MODEL      225
REMARK  Name = ZINC000199808509
REMARK                            x       y       z     vdW  Elec       q    Type
REMARK                         _______ _______ _______ _____ _____    ______ ____
ROOT
ATOM      1  C   LIG    1        1.291  -0.725  -0.014  0.00  0.00    +0.190 A 
ATOM      2  C   LIG    1        1.292  -2.130  -0.028  0.00  0.00    -0.020 A 
ATOM      3  C   LIG    1        2.475  -2.807  -0.043  0.00  0.00    +0.100 A 
ATOM      4  C   LIG    1        3.671  -2.062  -0.044  0.00  0.00    -0.100 A 
ATOM      5  C   LIG    1        4.923  -2.696  -0.060  0.00  0.00    +0.050 A 
ATOM      6  C   LIG    1        6.059  -1.945  -0.062  0.00  0.00    +0.030 A 
ATOM      7  C   LIG    1        5.997  -0.553  -0.048  0.00  0.00    +0.050 A 
ATOM      8  C   LIG    1        4.800   0.096  -0.032  0.00  0.00    -0.020 A 
ATOM      9 CL   LIG    1        4.750   1.831  -0.014  0.00  0.00    -0.040 Cl
ATOM     10  C   LIG    1        3.604  -0.646  -0.030  0.00  0.00    +0.140 A 
ATOM     11  N   LIG    1        2.417  -0.035  -0.021  0.00  0.00    -0.470 NA
ENDROOT
BRANCH   1  13
ATOM     12  C   LIG    1       -0.016   1.323   0.009  0.00  0.00    +0.100 C 
ATOM     13  C   LIG    1        0.002  -0.004   0.002  0.00  0.00    -0.010 C 
ENDBRANCH   1  13
TORSDOF 1
ENDMDL
MODEL      226
REMARK  Name = ZINC000039185378
REMARK                            x       y       z     vdW  Elec       q    Type
REMARK                         _______ _______ _______ _____ _____    ______ ____
ROOT
ATOM      1  C   LIG    1        1.291  -0.725  -0.014  0.00  0.00    +0.200 A 
ATOM      2  C   LIG    1        1.292  -2.130  -0.028  0.00  0.00    -0.020 A 
ATOM      3  C   LIG    1        2.475  -2.807  -0.043  0.00  0.00    +0.090 A 
ATOM      4  C   LIG    1        3.671  -2.062  -0.045  0.00  0.00    -0.110 A 
ATOM      5  C   LIG    1        4.923  -2.697  -0.061  0.00  0.00    +0.060 A 
ATOM      6  C   LIG    1        6.059  -1.947  -0.063  0.00  0.00    +0.030 A 
ATOM      7  C   LIG    1        5.997  -0.554  -0.049  0.00  0.00    -0.010 A 
ATOM      8  C   LIG    1        4.799   0.095  -0.034  0.00  0.00    +0.060 A 
ATOM      9 CL   LIG    1        7.468   0.368  -0.053  0.00  0.00    -0.060 Cl
ATOM     10  C   LIG    1        3.604  -0.646  -0.031  0.00  0.00    +0.140 A 
ATOM     11  N   LIG    1        2.417  -0.035  -0.021  0.00  0.00    -0.470 NA
ENDROOT
BRANCH   1  13
ATOM     12  C   LIG    1       -0.016   1.323   0.009  0.00  0.00    +0.100 C 
ATOM     13  C   LIG    1        0.002  -0.004   0.002  0.00  0.00    -0.010 C 
ENDBRANCH   1  13
TORSDOF 1
ENDMDL
MODEL      227
REMARK  Name = ZINC000077301348
REMARK                            x       y       z     vdW  Elec       q    Type
REMARK                         _______ _______ _______ _____ _____    ______ ____
ROOT
ATOM      1  C   LIG    1        1.292  -0.726  -0.014  0.00  0.00    -0.070 A 
ATOM      2  C   LIG    1        2.493  -0.015  -0.016  0.00  0.00    +0.010 A 
ATOM      3  C   LIG    1        3.693  -0.694  -0.031  0.00  0.00    +0.000 A 
ATOM      4  C   LIG    1        3.709  -2.077  -0.045  0.00  0.00    -0.080 A 
ATOM      5  C   LIG    1        2.522  -2.788  -0.043  0.00  0.00    +0.010 A 
ATOM      6  C   LIG    1        1.314  -2.121  -0.022  0.00  0.00    +0.010 A 
ENDROOT
BRANCH   1   8
ATOM      7  C   LIG    1       -0.016   1.321   0.009  0.00  0.00    +0.030 C 
ATOM      8  C   LIG    1        0.002  -0.004   0.002  0.00  0.00    +0.000 C 
ENDBRANCH   1   8
BRANCH   4   9
ATOM      9  C   LIG    1        5.024  -2.813  -0.062  0.00  0.00    +0.060 C 
BRANCH   9  10
ATOM     10  C   LIG    1        5.479  -3.076   1.375  0.00  0.00    -0.020 C 
ATOM     11  C   LIG    1        6.872  -3.711   1.360  0.00  0.00    +0.020 C 
ATOM     12  C   LIG    1        4.493  -4.026   2.057  0.00  0.00    +0.010 C 
ENDBRANCH   9  10
ENDBRANCH   4   9
TORSDOF 3
ENDMDL
MODEL      228
REMARK  Name = ZINC000072225754
REMARK                            x       y       z     vdW  Elec       q    Type
REMARK                         _______ _______ _______ _____ _____    ______ ____
ROOT
ATOM      1  C   LIG    1       -1.267  -0.760   0.010  0.00  0.00    -0.120 A 
ATOM      2  C   LIG    1       -1.260  -2.162   0.008  0.00  0.00    +0.090 A 
ATOM      3  C   LIG    1       -2.470  -2.825   0.016  0.00  0.00    -0.010 A 
ATOM      4  C   LIG    1       -3.651  -2.085   0.025  0.00  0.00    +0.120 A 
ATOM      5  N   LIG    1       -3.624  -0.760   0.027  0.00  0.00    -0.480 NA
ATOM      6  C   LIG    1       -2.490  -0.090   0.025  0.00  0.00    +0.280 A 
ENDROOT
BRANCH   1   8
ATOM      7  C   LIG    1       -0.016   1.322   0.009  0.00  0.00    +0.040 C 
ATOM      8  C   LIG    1        0.002  -0.004   0.002  0.00  0.00    +0.000 C 
ENDBRANCH   1   8
BRANCH   4   9
ATOM      9  S   LIG    1       -5.201  -2.923   0.035  0.00  0.00    -0.070 S 
BRANCH   9  10
ATOM     10  C   LIG    1       -6.400  -1.562   0.045  0.00  0.00    -0.040 C 
ATOM     11  C   LIG    1       -6.187  -0.704   1.294  0.00  0.00    +0.050 C 
ATOM     12  C   LIG    1       -7.819  -2.133   0.055  0.00  0.00    +0.070 C 
ATOM     13  C   LIG    1       -6.205  -0.701  -1.204  0.00  0.00    +0.050 C 
ENDBRANCH   9  10
ENDBRANCH   4   9
TORSDOF 3
ENDMDL
MODEL      229
REMARK  Name = ZINC000034190877
REMARK                            x       y       z     vdW  Elec       q    Type
REMARK                         _______ _______ _______ _____ _____    ______ ____
ROOT
ATOM      1  C   LIG    1       -1.267  -0.760   0.010  0.00  0.00    -0.060 A 
ATOM      2  C   LIG    1       -2.486  -0.079   0.020  0.00  0.00    +0.020 A 
ATOM      3  C   LIG    1       -3.668  -0.784   0.027  0.00  0.00    +0.020 A 
ATOM      4  C   LIG    1       -3.649  -2.179   0.026  0.00  0.00    -0.050 A 
ATOM      5  C   LIG    1       -2.432  -2.860   0.016  0.00  0.00    +0.020 A 
ATOM      6  C   LIG    1       -1.248  -2.156   0.002  0.00  0.00    +0.020 A 
ENDROOT
BRANCH   4   7
ATOM      7  C   LIG    1       -4.923  -2.938   0.034  0.00  0.00    -0.050 A 
ATOM      8  C   LIG    1       -6.140  -2.258   0.037  0.00  0.00    +0.040 A 
ATOM      9  C   LIG    1       -7.323  -2.967   0.045  0.00  0.00    -0.010 A 
ATOM     10  C   LIG    1       -7.303  -4.355   0.050  0.00  0.00    +0.110 A 
ATOM     11  C   LIG    1       -6.092  -5.034   0.046  0.00  0.00    -0.010 A 
ATOM     12  C   LIG    1       -4.905  -4.332   0.033  0.00  0.00    +0.040 A 
BRANCH  10  13
ATOM     13  O   LIG    1       -8.470  -5.050   0.058  0.00  0.00    -0.500 OA
ATOM     14  H   LIG    1       -8.812  -5.255  -0.824  0.00  0.00    +0.390 HD
ENDBRANCH  10  13
ENDBRANCH   4   7
BRANCH   1  16
ATOM     15  C   LIG    1       -0.016   1.322   0.009  0.00  0.00    +0.030 C 
ATOM     16  C   LIG    1        0.002  -0.004   0.002  0.00  0.00    +0.000 C 
ENDBRANCH   1  16
TORSDOF 3
ENDMDL
MODEL      230
REMARK  Name = ZINC000005470392
REMARK                            x       y       z     vdW  Elec       q    Type
REMARK                         _______ _______ _______ _____ _____    ______ ____
ROOT
ATOM      1  N   LIG    1        1.220  -0.685  -0.013  0.00  0.00    -0.400 N 
ATOM      2  C   LIG    1        2.456  -0.102  -0.016  0.00  0.00    +0.150 A 
ATOM      3  C   LIG    1        3.386  -1.075  -0.032  0.00  0.00    -0.030 A 
ATOM      4  C   LIG    1        2.701  -2.317  -0.040  0.00  0.00    -0.130 A 
ATOM      5  C   LIG    1        1.370  -2.041  -0.022  0.00  0.00    +0.040 A 
ENDROOT
BRANCH   4   6
ATOM      6  C   LIG    1        3.322  -3.665  -0.058  0.00  0.00    +0.000 A 
ATOM      7  C   LIG    1        2.913  -4.635   0.855  0.00  0.00    +0.000 A 
ATOM      8  C   LIG    1        3.493  -5.887   0.834  0.00  0.00    +0.000 A 
ATOM      9  C   LIG    1        4.479  -6.180  -0.091  0.00  0.00    -0.010 A 
ATOM     10  C   LIG    1        4.889  -5.221  -0.999  0.00  0.00    +0.000 A 
ATOM     11  C   LIG    1        4.311  -3.967  -0.991  0.00  0.00    +0.010 A 
ENDBRANCH   4   6
BRANCH   1  13
ATOM     12  C   LIG    1       -0.016   1.314   0.009  0.00  0.00    +0.020 C 
ATOM     13  C   LIG    1        0.002  -0.004   0.002  0.00  0.00    +0.210 C 
ENDBRANCH   1  13
BRANCH   5  14
ATOM     14  C   LIG    1        0.255  -3.055  -0.022  0.00  0.00    +0.100 C 
ATOM     15  C   LIG    1       -0.138  -3.381  -1.465  0.00  0.00    +0.020 C 
ENDBRANCH   5  14
TORSDOF 3
ENDMDL
MODEL      231
REMARK  Name = ZINC000005712155
REMARK                            x       y       z     vdW  Elec       q    Type
REMARK                         _______ _______ _______ _____ _____    ______ ____
ROOT
ATOM      1  N   LIG    1        1.219  -0.685  -0.013  0.00  0.00    -0.390 N 
ATOM      2  C   LIG    1        2.456  -0.107  -0.016  0.00  0.00    +0.160 A 
ATOM      3  C   LIG    1        3.386  -1.086  -0.032  0.00  0.00    -0.050 A 
ATOM      4  C   LIG    1        2.711  -2.318  -0.039  0.00  0.00    -0.140 A 
ATOM      5  C   LIG    1        3.347  -3.684  -0.057  0.00  0.00    +0.100 C 
ATOM      6  C   LIG    1        1.375  -2.050  -0.022  0.00  0.00    +0.040 A 
ENDROOT
BRANCH   6   7
ATOM      7  C   LIG    1        0.286  -3.050  -0.022  0.00  0.00    -0.020 A 
ATOM      8  C   LIG    1        0.342  -4.146  -0.885  0.00  0.00    +0.030 A 
ATOM      9  C   LIG    1       -0.677  -5.076  -0.880  0.00  0.00    +0.020 A 
ATOM     10  C   LIG    1       -1.752  -4.924  -0.023  0.00  0.00    +0.000 A 
ATOM     11  C   LIG    1       -1.813  -3.840   0.835  0.00  0.00    +0.010 A 
ATOM     12  C   LIG    1       -0.798  -2.906   0.844  0.00  0.00    +0.000 A 
ENDBRANCH   6   7
BRANCH   1  14
ATOM     13  C   LIG    1       -0.016   1.315   0.009  0.00  0.00    +0.020 C 
ATOM     14  C   LIG    1        0.002  -0.004   0.002  0.00  0.00    +0.210 C 
ENDBRANCH   1  14
TORSDOF 2
ENDMDL
MODEL      232
REMARK  Name = ZINC000005419273
REMARK                            x       y       z     vdW  Elec       q    Type
REMARK                         _______ _______ _______ _____ _____    ______ ____
ROOT
ATOM      1  N   LIG    1        1.220  -0.685  -0.013  0.00  0.00    -0.400 N 
ATOM      2  C   LIG    1        2.457  -0.106  -0.016  0.00  0.00    +0.140 A 
ATOM      3  C   LIG    1        3.382  -1.087  -0.032  0.00  0.00    -0.040 A 
ATOM      4  C   LIG    1        2.693  -2.317  -0.040  0.00  0.00    -0.150 A 
ATOM      5  C   LIG    1        1.373  -2.043  -0.022  0.00  0.00    +0.010 A 
ATOM      6  C   LIG    1        0.260  -3.058  -0.022  0.00  0.00    +0.120 C 
ENDROOT
BRANCH   1   8
ATOM      7  C   LIG    1       -0.016   1.314   0.009  0.00  0.00    +0.020 C 
ATOM      8  C   LIG    1        0.002  -0.004   0.002  0.00  0.00    +0.210 C 
ENDBRANCH   1   8
BRANCH   4   9
ATOM      9  C   LIG    1        3.319  -3.688  -0.057  0.00  0.00    +0.080 C 
BRANCH   9  10
ATOM     10  C   LIG    1        3.406  -4.191  -1.500  0.00  0.00    +0.010 C 
BRANCH  10  11
ATOM     11  C   LIG    1        4.041  -5.583  -1.517  0.00  0.00    +0.000 C 
BRANCH  11  12
ATOM     12  C   LIG    1        4.128  -6.085  -2.960  0.00  0.00    -0.010 C 
ATOM     13  C   LIG    1        4.763  -7.477  -2.978  0.00  0.00    +0.000 C 
ENDBRANCH  11  12
ENDBRANCH  10  11
ENDBRANCH   9  10
ENDBRANCH   4   9
TORSDOF 5
ENDMDL
MODEL      233
REMARK  Name = ZINC000005911752
REMARK                            x       y       z     vdW  Elec       q    Type
REMARK                         _______ _______ _______ _____ _____    ______ ____
ROOT
ATOM      1  C   LIG    1       -0.290  -3.148   0.172  0.00  0.00    -0.020 A 
ATOM      2  C   LIG    1        1.024  -2.768   0.453  0.00  0.00    +0.030 A 
ATOM      3  C   LIG    1        2.013  -3.726   0.535  0.00  0.00    +0.020 A 
ATOM      4  C   LIG    1        1.706  -5.061   0.339  0.00  0.00    -0.080 A 
ATOM      5  C   LIG    1        0.406  -5.444   0.060  0.00  0.00    +0.010 A 
ATOM      6  C   LIG    1       -0.594  -4.497  -0.020  0.00  0.00    -0.010 A 
ENDROOT
BRANCH   1  11
ATOM      7  N   LIG    1       -2.532  -2.245  -0.616  0.00  0.00    -0.400 N 
ATOM      8  C   LIG    1       -3.250  -1.095  -0.453  0.00  0.00    +0.160 A 
ATOM      9  C   LIG    1       -2.541  -0.254   0.331  0.00  0.00    -0.050 A 
ATOM     10  C   LIG    1       -1.339  -0.898   0.671  0.00  0.00    -0.030 A 
ATOM     11  C   LIG    1       -1.355  -2.127   0.082  0.00  0.00    +0.050 A 
BRANCH   7  13
ATOM     12  C   LIG    1       -4.192  -3.492  -1.717  0.00  0.00    +0.030 C 
ATOM     13  C   LIG    1       -2.930  -3.355  -1.360  0.00  0.00    +0.210 C 
ENDBRANCH   7  13
ENDBRANCH   1  11
BRANCH   4  14
ATOM     14  C   LIG    1        2.791  -6.102   0.430  0.00  0.00    +0.050 C 
ATOM     15  C   LIG    1        2.898  -6.602   1.872  0.00  0.00    +0.030 C 
ENDBRANCH   4  14
TORSDOF 3
ENDMDL
MODEL      234
REMARK  Name = ZINC000006223447
REMARK                            x       y       z     vdW  Elec       q    Type
REMARK                         _______ _______ _______ _____ _____    ______ ____
ROOT
ATOM      1  N   LIG    1       -1.196  -0.718   0.010  0.00  0.00    -0.390 N 
ATOM      2  C   LIG    1       -2.450  -0.173   0.018  0.00  0.00    +0.170 A 
ATOM      3  C   LIG    1       -3.353  -1.177   0.023  0.00  0.00    -0.030 A 
ATOM      4  C   LIG    1       -2.646  -2.391   0.017  0.00  0.00    -0.130 A 
ATOM      5  C   LIG    1       -3.246  -3.773   0.018  0.00  0.00    +0.110 C 
ATOM      6  C   LIG    1       -1.315  -2.087   0.003  0.00  0.00    +0.070 A 
ENDROOT
BRANCH   6   7
ATOM      7  C   LIG    1       -0.205  -3.055  -0.007  0.00  0.00    -0.120 A 
ATOM      8  C   LIG    1        0.890  -2.977  -0.794  0.00  0.00    +0.010 A 
ATOM      9  C   LIG    1        1.795  -4.003  -0.623  0.00  0.00    +0.010 A 
ATOM     10  C   LIG    1        1.452  -4.915   0.291  0.00  0.00    -0.050 A 
ATOM     11  S   LIG    1       -0.096  -4.487   1.008  0.00  0.00    +0.140 S 
ENDBRANCH   6   7
BRANCH   1  13
ATOM     12  C   LIG    1       -0.016   1.315   0.009  0.00  0.00    +0.020 C 
ATOM     13  C   LIG    1        0.002  -0.004   0.002  0.00  0.00    +0.210 C 
ENDBRANCH   1  13
TORSDOF 2
ENDMDL
MODEL      235
REMARK  Name = ZINC000039254343
REMARK                            x       y       z     vdW  Elec       q    Type
REMARK                         _______ _______ _______ _____ _____    ______ ____
ROOT
ATOM      1  C   LIG    1       -1.200  -0.637   0.010  0.00  0.00    +0.120 A 
ATOM      2  C   LIG    1       -1.820  -0.970   1.231  0.00  0.00    -0.060 A 
ATOM      3  C   LIG    1       -1.219  -0.659   2.462  0.00  0.00    +0.030 A 
ATOM      4  C   LIG    1       -1.846  -0.995   3.622  0.00  0.00    +0.020 A 
ATOM      5  C   LIG    1       -3.079  -1.645   3.608  0.00  0.00    +0.020 A 
ATOM      6  C   LIG    1       -3.691  -1.962   2.435  0.00  0.00    +0.020 A 
ATOM      7  C   LIG    1       -3.073  -1.630   1.216  0.00  0.00    -0.040 A 
ATOM      8  C   LIG    1       -3.676  -1.942  -0.013  0.00  0.00    +0.050 A 
ATOM      9  C   LIG    1       -3.056  -1.609  -1.178  0.00  0.00    +0.040 A 
ATOM     10  C   LIG    1       -1.826  -0.955  -1.175  0.00  0.00    -0.060 A 
ATOM     11 CL   LIG    1       -1.067  -0.547  -2.682  0.00  0.00    -0.050 Cl
ENDROOT
BRANCH   1  13
ATOM     12  C   LIG    1       -0.017   1.425   0.010  0.00  0.00    +0.230 C 
ATOM     13  O   LIG    1        0.002  -0.004   0.002  0.00  0.00    -0.320 OA
ENDBRANCH   1  13
TORSDOF 1
ENDMDL
MODEL      236
REMARK  Name = ZINC000041205097
REMARK                            x       y       z     vdW  Elec       q    Type
REMARK                         _______ _______ _______ _____ _____    ______ ____
ROOT
ATOM      1  C   LIG    1       -0.551   1.439  -0.204  0.00  0.00    +0.090 C 
ATOM      2  C   LIG    1       -0.252  -0.035  -0.100  0.00  0.00    -0.100 A 
ATOM      3  C   LIG    1       -0.245  -0.819  -1.240  0.00  0.00    +0.040 A 
ATOM      4  C   LIG    1        0.029  -2.174  -1.155  0.00  0.00    -0.010 A 
ATOM      5  C   LIG    1        0.296  -2.751   0.068  0.00  0.00    +0.050 A 
ATOM      6  C   LIG    1        0.291  -1.965   1.224  0.00  0.00    -0.170 A 
ATOM      7  C   LIG    1        0.019  -0.597   1.130  0.00  0.00    -0.020 A 
ATOM      8  C   LIG    1        0.011   0.260   2.370  0.00  0.00    +0.110 C 
ENDROOT
BRANCH   6   9
ATOM      9  C   LIG    1        0.576  -2.574   2.534  0.00  0.00    +0.390 C 
ATOM     10  O   LIG    1        0.676  -1.873   3.519  0.00  0.00    -0.440 OA
BRANCH   9  11
ATOM     11  C   LIG    1        0.743  -4.067   2.650  0.00  0.00    +0.040 C 
BRANCH  11  12
ATOM     12  C   LIG    1        1.030  -4.436   4.107  0.00  0.00    -0.010 C 
ATOM     13  C   LIG    1        1.322  -5.934   4.205  0.00  0.00    +0.020 C 
ATOM     14  C   LIG    1       -0.189  -4.096   4.968  0.00  0.00    +0.020 C 
ENDBRANCH  11  12
ENDBRANCH   9  11
ENDBRANCH   6   9
TORSDOF 3
ENDMDL
MODEL      237
REMARK  Name = ZINC000001725365
REMARK                            x       y       z     vdW  Elec       q    Type
REMARK                         _______ _______ _______ _____ _____    ______ ____
ROOT
ATOM      1  C   LIG    1        0.606  -0.607  -1.055  0.00  0.00    +0.140 A 
ATOM      2  C   LIG    1        1.172   0.158  -2.061  0.00  0.00    -0.080 A 
ATOM      3  C   LIG    1        1.786  -0.456  -3.137  0.00  0.00    -0.050 A 
ATOM      4  C   LIG    1        1.839  -1.837  -3.216  0.00  0.00    -0.030 A 
ATOM      5  C   LIG    1        1.278  -2.613  -2.223  0.00  0.00    +0.060 A 
ATOM      6  C   LIG    1        2.401   0.382  -4.228  0.00  0.00    +0.090 C 
ATOM      7  C   LIG    1        0.662  -2.004  -1.129  0.00  0.00    -0.080 A 
ENDROOT
BRANCH   7   8
ATOM      8  C   LIG    1        0.061  -2.829  -0.062  0.00  0.00    -0.090 C 
ATOM      9  C   LIG    1        0.591  -3.010   1.136  0.00  0.00    -0.030 C 
ATOM     10  C   LIG    1       -0.283  -3.908   1.980  0.00  0.00    +0.050 C 
ATOM     11  C   LIG    1       -1.651  -3.917   1.262  0.00  0.00    +0.020 C 
ATOM     12  C   LIG    1       -1.247  -3.576  -0.189  0.00  0.00    +0.050 C 
ENDBRANCH   7   8
BRANCH   1  14
ATOM     13  C   LIG    1       -0.017   1.425   0.010  0.00  0.00    +0.250 C 
ATOM     14  O   LIG    1        0.002  -0.004   0.002  0.00  0.00    -0.310 OA
ENDBRANCH   1  14
TORSDOF 2
ENDMDL
MODEL      238
REMARK  Name = ZINC000071256820
REMARK                            x       y       z     vdW  Elec       q    Type
REMARK                         _______ _______ _______ _____ _____    ______ ____
ROOT
ATOM      1  C   LIG    1        0.606  -0.607  -1.056  0.00  0.00    +0.140 A 
ATOM      2  C   LIG    1        1.174   0.177  -2.064  0.00  0.00    -0.040 A 
ATOM      3  C   LIG    1        1.786  -0.398  -3.136  0.00  0.00    +0.010 A 
ATOM      4  C   LIG    1        1.849  -1.800  -3.233  0.00  0.00    -0.080 A 
ATOM      5  C   LIG    1        2.474  -2.427  -4.324  0.00  0.00    +0.040 A 
ATOM      6  C   LIG    1        2.517  -3.786  -4.386  0.00  0.00    +0.010 A 
ATOM      7  C   LIG    1        1.951  -4.569  -3.381  0.00  0.00    +0.030 A 
ATOM      8  C   LIG    1        1.338  -3.997  -2.309  0.00  0.00    +0.020 A 
ATOM      9  C   LIG    1        1.273  -2.596  -2.211  0.00  0.00    +0.000 A 
ATOM     10 CL   LIG    1        2.485   0.594  -4.376  0.00  0.00    -0.050 Cl
ATOM     11  C   LIG    1        0.654  -1.971  -1.116  0.00  0.00    -0.010 A 
ENDROOT
BRANCH   1  13
ATOM     12  C   LIG    1       -0.017   1.425   0.010  0.00  0.00    +0.240 C 
ATOM     13  O   LIG    1        0.002  -0.004   0.002  0.00  0.00    -0.310 OA
ENDBRANCH   1  13
TORSDOF 1
ENDMDL
MODEL      239
REMARK  Name = ZINC000001734343
REMARK                            x       y       z     vdW  Elec       q    Type
REMARK                         _______ _______ _______ _____ _____    ______ ____
ROOT
ATOM      1  C   LIG    1       -4.577   0.383  -1.070  0.00  0.00    -0.120 C 
ATOM      2  C   LIG    1       -4.775   1.413  -1.855  0.00  0.00    -0.050 C 
ATOM      3  C   LIG    1       -5.674  -0.084  -0.148  0.00  0.00    +0.080 C 
ENDROOT
BRANCH   1   4
ATOM      4  C   LIG    1       -3.252  -0.335  -1.089  0.00  0.00    +0.060 C 
BRANCH   4   5
ATOM      5  C   LIG    1       -2.355   0.219   0.020  0.00  0.00    +0.050 C 
BRANCH   5   8
ATOM      6  C   LIG    1        0.040   1.688  -0.183  0.00  0.00    +0.080 C 
ATOM      7  C   LIG    1        0.083   0.184  -0.093  0.00  0.00    -0.130 C 
ATOM      8  C   LIG    1       -1.031  -0.499   0.001  0.00  0.00    -0.060 C 
ATOM      9  C   LIG    1        1.408  -0.534  -0.112  0.00  0.00    +0.070 C 
ENDBRANCH   5   8
ENDBRANCH   4   5
ENDBRANCH   1   4
BRANCH   2  10
ATOM     10  C   LIG    1       -6.052   2.206  -1.749  0.00  0.00    +0.070 C 
BRANCH  10  11
ATOM     11  C   LIG    1       -5.723   3.661  -1.532  0.00  0.00    +0.360 C 
ATOM     12  O   LIG    1       -4.570   4.016  -1.470  0.00  0.00    -0.460 OA
ATOM     13  C   LIG    1       -6.832   4.672  -1.393  0.00  0.00    +0.050 C 
ENDBRANCH  10  11
ENDBRANCH   2  10
TORSDOF 5
ENDMDL
MODEL      240
REMARK  Name = ZINC000016971183
REMARK                            x       y       z     vdW  Elec       q    Type
REMARK                         _______ _______ _______ _____ _____    ______ ____
ROOT
ATOM      1  C   LIG    1       -4.603   0.365  -1.063  0.00  0.00    -0.120 C 
ATOM      2  C   LIG    1       -5.683  -0.250  -0.647  0.00  0.00    -0.040 C 
ATOM      3  C   LIG    1       -4.692   1.778  -1.578  0.00  0.00    +0.070 C 
ENDROOT
BRANCH   1   4
ATOM      4  C   LIG    1       -3.272  -0.341  -1.025  0.00  0.00    +0.060 C 
BRANCH   4   5
ATOM      5  C   LIG    1       -2.557  -0.011   0.287  0.00  0.00    +0.050 C 
BRANCH   5   8
ATOM      6  C   LIG    1       -0.194   1.462   0.713  0.00  0.00    +0.080 C 
ATOM      7  C   LIG    1       -0.127  -0.032   0.523  0.00  0.00    -0.130 C 
ATOM      8  C   LIG    1       -1.226  -0.716   0.325  0.00  0.00    -0.060 C 
ATOM      9  C   LIG    1        1.204  -0.738   0.561  0.00  0.00    +0.070 C 
ENDBRANCH   5   8
ENDBRANCH   4   5
ENDBRANCH   1   4
BRANCH   2  10
ATOM     10  C   LIG    1       -5.576  -1.608  -0.002  0.00  0.00    +0.070 C 
BRANCH  10  11
ATOM     11  C   LIG    1       -6.256  -1.580   1.343  0.00  0.00    +0.360 C 
ATOM     12  O   LIG    1       -6.774  -0.563   1.736  0.00  0.00    -0.460 OA
ATOM     13  C   LIG    1       -6.289  -2.822   2.196  0.00  0.00    +0.050 C 
ENDBRANCH  10  11
ENDBRANCH   2  10
TORSDOF 5
ENDMDL
MODEL      241
REMARK  Name = ZINC000015441398
REMARK                            x       y       z     vdW  Elec       q    Type
REMARK                         _______ _______ _______ _____ _____    ______ ____
ROOT
ATOM      1  C   LIG    1       -1.200  -0.637   0.010  0.00  0.00    +0.130 A 
ATOM      2  C   LIG    1       -2.374   0.104   0.020  0.00  0.00    -0.080 A 
ATOM      3  C   LIG    1       -3.595  -0.536   0.028  0.00  0.00    +0.060 A 
ATOM      4  C   LIG    1       -3.651  -1.928   0.027  0.00  0.00    -0.090 A 
ATOM      5  C   LIG    1       -2.471  -2.670   0.017  0.00  0.00    +0.060 A 
ATOM      6  C   LIG    1       -1.252  -2.025   0.003  0.00  0.00    -0.020 A 
ENDROOT
BRANCH   4   7
ATOM      7  C   LIG    1       -4.963  -2.620   0.036  0.00  0.00    -0.030 A 
ATOM      8  C   LIG    1       -6.144  -1.879   0.040  0.00  0.00    +0.000 A 
ATOM      9  C   LIG    1       -7.362  -2.528   0.048  0.00  0.00    +0.010 A 
ATOM     10  C   LIG    1       -7.413  -3.910   0.052  0.00  0.00    +0.000 A 
ATOM     11  C   LIG    1       -6.244  -4.650   0.049  0.00  0.00    -0.080 A 
ATOM     12  C   LIG    1       -6.307  -6.156   0.053  0.00  0.00    +0.090 C 
ATOM     13  C   LIG    1       -5.020  -4.012   0.035  0.00  0.00    +0.000 A 
ENDBRANCH   4   7
BRANCH   1  15
ATOM     14  C   LIG    1       -0.017   1.425   0.010  0.00  0.00    +0.250 C 
ATOM     15  O   LIG    1        0.002  -0.004   0.002  0.00  0.00    -0.320 OA
ENDBRANCH   1  15
TORSDOF 2
ENDMDL
MODEL      242
REMARK  Name = ZINC000081174667
REMARK                            x       y       z     vdW  Elec       q    Type
REMARK                         _______ _______ _______ _____ _____    ______ ____
ROOT
ATOM      1  C   LIG    1        1.444  -2.513  -2.505  0.00  0.00    +0.080 A 
ATOM      2  C   LIG    1        0.867  -2.676  -3.706  0.00  0.00    -0.050 A 
ATOM      3  C   LIG    1        1.906  -3.160  -4.618  0.00  0.00    -0.110 A 
ATOM      4  C   LIG    1        1.926  -3.506  -5.971  0.00  0.00    +0.050 A 
ATOM      5  C   LIG    1        3.089  -3.936  -6.544  0.00  0.00    -0.030 A 
ATOM      6  C   LIG    1        4.252  -4.031  -5.793  0.00  0.00    +0.030 A 
ATOM      7  C   LIG    1        4.256  -3.694  -4.457  0.00  0.00    -0.010 A 
ATOM      8  C   LIG    1        3.083  -3.254  -3.853  0.00  0.00    +0.090 A 
ATOM      9  N   LIG    1        2.769  -2.849  -2.575  0.00  0.00    -0.590 N 
ATOM     10  H   LIG    1        3.394  -2.809  -1.833  0.00  0.00    +0.410 HD
ENDROOT
BRANCH   1  11
ATOM     11  C   LIG    1        0.739  -2.027  -1.265  0.00  0.00    +0.100 C 
BRANCH  11  12
ATOM     12  C   LIG    1        0.718  -0.497  -1.257  0.00  0.00    +0.010 C 
BRANCH  12  14
ATOM     13  C   LIG    1       -0.019   1.526   0.010  0.00  0.00    +0.020 C 
ATOM     14  C   LIG    1        0.002  -0.004   0.002  0.00  0.00    -0.010 C 
ENDBRANCH  12  14
ENDBRANCH  11  12
ENDBRANCH   1  11
TORSDOF 3
ENDMDL
MODEL      243
REMARK  Name = ZINC000044404105
REMARK                            x       y       z     vdW  Elec       q    Type
REMARK                         _______ _______ _______ _____ _____    ______ ____
ROOT
ATOM      1  C   LIG    1       -0.018   1.503   0.010  0.00  0.00    +0.090 C 
ATOM      2  C   LIG    1        0.002  -0.004   0.002  0.00  0.00    -0.080 A 
ATOM      3  C   LIG    1        0.006  -0.686  -1.198  0.00  0.00    +0.000 A 
ATOM      4  C   LIG    1        0.025  -2.079  -1.204  0.00  0.00    -0.040 A 
ATOM      5  C   LIG    1        0.041  -2.776   0.003  0.00  0.00    +0.000 A 
ATOM      6  C   LIG    1        0.037  -2.084   1.196  0.00  0.00    -0.080 A 
ATOM      7  C   LIG    1        0.054  -2.836   2.502  0.00  0.00    +0.090 C 
ATOM      8  C   LIG    1        0.023  -0.701   1.197  0.00  0.00    +0.000 A 
ENDROOT
BRANCH   4   9
ATOM      9  C   LIG    1        0.030  -2.818  -2.491  0.00  0.00    -0.050 A 
ATOM     10  C   LIG    1        0.020  -2.122  -3.697  0.00  0.00    +0.010 A 
ATOM     11  C   LIG    1        0.025  -2.814  -4.891  0.00  0.00    +0.000 A 
ATOM     12  C   LIG    1        0.039  -4.197  -4.891  0.00  0.00    +0.000 A 
ATOM     13  C   LIG    1        0.048  -4.894  -3.697  0.00  0.00    +0.000 A 
ATOM     14  C   LIG    1        0.049  -4.212  -2.497  0.00  0.00    +0.010 A 
ENDBRANCH   4   9
TORSDOF 1
ENDMDL
MODEL      244
REMARK  Name = ZINC000044709913
REMARK                            x       y       z     vdW  Elec       q    Type
REMARK                         _______ _______ _______ _____ _____    ______ ____
ROOT
ATOM      1  C   LIG    1        1.538  -4.034  -2.567  0.00  0.00    -0.040 C 
ATOM      2  C   LIG    1        0.908  -4.685  -3.513  0.00  0.00    -0.050 C 
ENDROOT
BRANCH   1   3
ATOM      3  C   LIG    1        1.543  -2.527  -2.564  0.00  0.00    +0.040 C 
BRANCH   3   4
ATOM      4  C   LIG    1        1.080  -2.018  -1.197  0.00  0.00    +0.010 C 
BRANCH   4   5
ATOM      5  C   LIG    1        1.085  -0.488  -1.194  0.00  0.00    +0.000 C 
BRANCH   5   7
ATOM      6  C   LIG    1        0.627   1.550   0.176  0.00  0.00    +0.000 C 
ATOM      7  C   LIG    1        0.622   0.020   0.173  0.00  0.00    -0.010 C 
ENDBRANCH   5   7
ENDBRANCH   4   5
ENDBRANCH   3   4
ENDBRANCH   1   3
BRANCH   2   8
ATOM      8  C   LIG    1        0.334  -3.937  -4.689  0.00  0.00    +0.080 C 
BRANCH   8   9
ATOM      9  C   LIG    1        0.853  -4.554  -5.989  0.00  0.00    -0.050 C 
ATOM     10  C   LIG    1        0.187  -3.870  -7.200  0.00  0.00    +0.040 C 
ATOM     11  C   LIG    1        1.323  -3.793  -8.251  0.00  0.00    +0.030 C 
ATOM     12  C   LIG    1        2.565  -3.498  -7.374  0.00  0.00    +0.000 C 
ATOM     13  C   LIG    1        2.344  -4.318  -6.115  0.00  0.00    +0.370 C 
ATOM     14  O   LIG    1        3.197  -4.708  -5.355  0.00  0.00    -0.430 OA
ENDBRANCH   8   9
ENDBRANCH   2   8
TORSDOF 6
ENDMDL
MODEL      245
REMARK  Name = ZINC000044709912
REMARK                            x       y       z     vdW  Elec       q    Type
REMARK                         _______ _______ _______ _____ _____    ______ ____
ROOT
ATOM      1  C   LIG    1        1.540  -4.034  -2.568  0.00  0.00    -0.050 C 
ATOM      2  C   LIG    1        0.908  -4.685  -3.513  0.00  0.00    -0.050 C 
ENDROOT
BRANCH   1   3
ATOM      3  C   LIG    1        1.547  -2.527  -2.566  0.00  0.00    +0.040 C 
BRANCH   3   4
ATOM      4  C   LIG    1        1.087  -2.017  -1.199  0.00  0.00    +0.010 C 
BRANCH   4   5
ATOM      5  C   LIG    1        1.094  -0.486  -1.198  0.00  0.00    +0.000 C 
BRANCH   5   7
ATOM      6  C   LIG    1        0.641   1.554   0.171  0.00  0.00    +0.000 C 
ATOM      7  C   LIG    1        0.634   0.024   0.169  0.00  0.00    -0.010 C 
ENDBRANCH   5   7
ENDBRANCH   4   5
ENDBRANCH   3   4
ENDBRANCH   1   3
BRANCH   2   8
ATOM      8  C   LIG    1        0.334  -3.937  -4.689  0.00  0.00    +0.070 C 
BRANCH   8   9
ATOM      9  C   LIG    1        0.853  -4.554  -5.989  0.00  0.00    -0.050 C 
ATOM     10  C   LIG    1        0.362  -3.730  -7.197  0.00  0.00    +0.040 C 
ATOM     11  C   LIG    1        0.062  -4.801  -8.276  0.00  0.00    +0.030 C 
ATOM     12  C   LIG    1       -0.521  -5.964  -7.436  0.00  0.00    +0.000 C 
ATOM     13  C   LIG    1        0.297  -5.953  -6.156  0.00  0.00    +0.370 C 
ATOM     14  O   LIG    1        0.471  -6.887  -5.410  0.00  0.00    -0.440 OA
ENDBRANCH   8   9
ENDBRANCH   2   8
TORSDOF 6
ENDMDL
MODEL      246
REMARK  Name = ZINC000039322928
REMARK                            x       y       z     vdW  Elec       q    Type
REMARK                         _______ _______ _______ _____ _____    ______ ____
ROOT
ATOM      1  C   LIG    1        0.606  -0.607  -1.056  0.00  0.00    +0.130 A 
ATOM      2  C   LIG    1        1.173   0.161  -2.062  0.00  0.00    -0.080 A 
ATOM      3  C   LIG    1        1.786  -0.455  -3.136  0.00  0.00    +0.040 A 
ATOM      4  C   LIG    1        1.835  -1.835  -3.209  0.00  0.00    -0.030 A 
ATOM      5  C   LIG    1        1.270  -2.602  -2.207  0.00  0.00    -0.040 A 
ATOM      6  C   LIG    1        0.661  -1.992  -1.128  0.00  0.00    -0.020 A 
ENDROOT
BRANCH   5   7
ATOM      7  C   LIG    1        1.325  -4.106  -2.289  0.00  0.00    +0.030 C 
ATOM      8  C   LIG    1        0.612  -4.573  -3.559  0.00  0.00    +0.020 C 
ATOM      9  C   LIG    1        0.667  -6.100  -3.643  0.00  0.00    +0.000 C 
ATOM     10  C   LIG    1        2.127  -6.556  -3.680  0.00  0.00    +0.000 C 
ATOM     11  C   LIG    1        2.840  -6.089  -2.409  0.00  0.00    +0.000 C 
ATOM     12  C   LIG    1        2.784  -4.562  -2.326  0.00  0.00    +0.020 C 
ENDBRANCH   5   7
BRANCH   1  14
ATOM     13  C   LIG    1       -0.017   1.425   0.010  0.00  0.00    +0.250 C 
ATOM     14  O   LIG    1        0.002  -0.004   0.002  0.00  0.00    -0.320 OA
ENDBRANCH   1  14
TORSDOF 2
ENDMDL
MODEL      247
REMARK  Name = ZINC000001674685
REMARK                            x       y       z     vdW  Elec       q    Type
REMARK                         _______ _______ _______ _____ _____    ______ ____
ROOT
ATOM      1  C   LIG    1        0.606  -0.607  -1.056  0.00  0.00    +0.130 A 
ATOM      2  C   LIG    1        1.173   0.163  -2.062  0.00  0.00    -0.080 A 
ATOM      3  C   LIG    1        1.788  -0.446  -3.141  0.00  0.00    +0.050 A 
ATOM      4  C   LIG    1        1.843  -1.822  -3.223  0.00  0.00    -0.030 A 
ATOM      5  C   LIG    1        1.276  -2.604  -2.216  0.00  0.00    -0.010 A 
ATOM      6  C   LIG    1        0.660  -1.989  -1.126  0.00  0.00    -0.010 A 
ENDROOT
BRANCH   5   7
ATOM      7  C   LIG    1        1.333  -4.079  -2.300  0.00  0.00    -0.090 C 
ATOM      8  C   LIG    1        2.024  -4.722  -1.391  0.00  0.00    -0.030 C 
ATOM      9  C   LIG    1        2.177  -6.215  -1.358  0.00  0.00    +0.060 C 
ATOM     10  C   LIG    1        1.107  -6.873  -2.232  0.00  0.00    +0.020 C 
ATOM     11  C   LIG    1        1.105  -6.183  -3.602  0.00  0.00    +0.020 C 
ATOM     12  C   LIG    1        0.593  -4.751  -3.419  0.00  0.00    +0.070 C 
ENDBRANCH   5   7
BRANCH   1  14
ATOM     13  C   LIG    1       -0.017   1.425   0.010  0.00  0.00    +0.250 C 
ATOM     14  O   LIG    1        0.002  -0.004   0.002  0.00  0.00    -0.320 OA
ENDBRANCH   1  14
TORSDOF 2
ENDMDL
MODEL      248
REMARK  Name = ZINC000039208739
REMARK                            x       y       z     vdW  Elec       q    Type
REMARK                         _______ _______ _______ _____ _____    ______ ____
ROOT
ATOM      1  C   LIG    1        0.625  -0.618   1.041  0.00  0.00    +0.150 A 
ATOM      2  C   LIG    1        0.690  -2.025   1.099  0.00  0.00    -0.060 A 
ATOM      3  C   LIG    1        0.118  -2.823   0.094  0.00  0.00    +0.060 A 
ATOM      4  C   LIG    1        0.200  -4.179   0.182  0.00  0.00    +0.020 A 
ATOM      5  C   LIG    1        0.843  -4.791   1.256  0.00  0.00    +0.050 A 
ATOM      6  C   LIG    1        1.409  -4.049   2.249  0.00  0.00    -0.040 A 
ATOM      7 CL   LIG    1        2.206  -4.832   3.578  0.00  0.00    -0.060 Cl
ATOM      8  C   LIG    1        1.345  -2.645   2.191  0.00  0.00    -0.010 A 
ATOM      9  C   LIG    1        1.917  -1.847   3.196  0.00  0.00    -0.020 A 
ATOM     10  C   LIG    1        1.837  -0.490   3.109  0.00  0.00    +0.060 A 
ATOM     11  C   LIG    1        1.199   0.124   2.034  0.00  0.00    -0.090 A 
ENDROOT
BRANCH   1  13
ATOM     12  C   LIG    1       -0.017   1.425   0.010  0.00  0.00    +0.250 C 
ATOM     13  O   LIG    1        0.002  -0.004   0.002  0.00  0.00    -0.310 OA
ENDBRANCH   1  13
TORSDOF 1
ENDMDL
MODEL      249
REMARK  Name = ZINC000071256814
REMARK                            x       y       z     vdW  Elec       q    Type
REMARK                         _______ _______ _______ _____ _____    ______ ____
ROOT
ATOM      1  C   LIG    1       -1.200  -0.637   0.010  0.00  0.00    +0.150 A 
ATOM      2  C   LIG    1       -1.260  -2.045   0.009  0.00  0.00    -0.060 A 
ATOM      3  C   LIG    1       -0.092  -2.825   0.000  0.00  0.00    +0.070 A 
ATOM      4  C   LIG    1       -0.189  -4.184  -0.000  0.00  0.00    -0.040 A 
ATOM      5  C   LIG    1       -1.432  -4.814   0.008  0.00  0.00    +0.040 A 
ATOM      6  C   LIG    1       -2.584  -4.090   0.017  0.00  0.00    +0.040 A 
ATOM      7 CL   LIG    1        1.258  -5.144  -0.011  0.00  0.00    -0.070 Cl
ATOM      8  C   LIG    1       -2.524  -2.686   0.017  0.00  0.00    -0.020 A 
ATOM      9  C   LIG    1       -3.692  -1.905   0.027  0.00  0.00    -0.010 A 
ATOM     10  C   LIG    1       -3.598  -0.547   0.028  0.00  0.00    +0.060 A 
ATOM     11  C   LIG    1       -2.358   0.087   0.025  0.00  0.00    -0.090 A 
ENDROOT
BRANCH   1  13
ATOM     12  C   LIG    1       -0.017   1.425   0.010  0.00  0.00    +0.250 C 
ATOM     13  O   LIG    1        0.002  -0.004   0.002  0.00  0.00    -0.310 OA
ENDBRANCH   1  13
TORSDOF 1
ENDMDL
MODEL      250
REMARK  Name = ZINC000071256668
REMARK                            x       y       z     vdW  Elec       q    Type
REMARK                         _______ _______ _______ _____ _____    ______ ____
ROOT
ATOM      1  C   LIG    1        0.605  -0.607  -1.055  0.00  0.00    +0.150 A 
ATOM      2  C   LIG    1        0.659  -2.013  -1.136  0.00  0.00    -0.070 A 
ATOM      3  C   LIG    1        0.095  -2.823  -0.135  0.00  0.00    -0.010 A 
ATOM      4  C   LIG    1        0.166  -4.179  -0.247  0.00  0.00    +0.020 A 
ATOM      5  C   LIG    1        0.790  -4.777  -1.340  0.00  0.00    +0.040 A 
ATOM      6  C   LIG    1        1.346  -4.023  -2.328  0.00  0.00    +0.030 A 
ATOM      7 CL   LIG    1       -0.687  -2.100   1.235  0.00  0.00    -0.040 Cl
ATOM      8  C   LIG    1        1.293  -2.620  -2.248  0.00  0.00    -0.010 A 
ATOM      9  C   LIG    1        1.857  -1.812  -3.249  0.00  0.00    -0.020 A 
ATOM     10  C   LIG    1        1.790  -0.456  -3.145  0.00  0.00    +0.060 A 
ATOM     11  C   LIG    1        1.165   0.151  -2.059  0.00  0.00    -0.090 A 
ENDROOT
BRANCH   1  13
ATOM     12  C   LIG    1       -0.017   1.425   0.010  0.00  0.00    +0.240 C 
ATOM     13  O   LIG    1        0.002  -0.004   0.002  0.00  0.00    -0.290 OA
ENDBRANCH   1  13
TORSDOF 1
ENDMDL
MODEL      251
REMARK  Name = ZINC000049946770
REMARK                            x       y       z     vdW  Elec       q    Type
REMARK                         _______ _______ _______ _____ _____    ______ ____
ROOT
ATOM      1  C   LIG    1        0.919  -1.857  -1.521  0.00  0.00    -0.010 C 
ATOM      2  C   LIG    1        1.598  -2.090  -0.170  0.00  0.00    +0.020 C 
ENDROOT
BRANCH   1   3
ATOM      3  C   LIG    1        0.895  -0.359  -1.829  0.00  0.00    -0.020 C 
ATOM      4  C   LIG    1        0.334  -0.136  -3.235  0.00  0.00    +0.020 C 
BRANCH   3   6
ATOM      5  C   LIG    1        0.085   1.868  -1.038  0.00  0.00    +0.000 C 
ATOM      6  C   LIG    1        0.011   0.358  -0.807  0.00  0.00    +0.000 C 
ENDBRANCH   3   6
ENDBRANCH   1   3
BRANCH   1   7
ATOM      7  C   LIG    1        1.697  -2.591  -2.615  0.00  0.00    -0.010 C 
ATOM      8  C   LIG    1        3.145  -2.096  -2.630  0.00  0.00    +0.020 C 
BRANCH   7   9
ATOM      9  C   LIG    1        1.675  -4.095  -2.337  0.00  0.00    -0.020 C 
ATOM     10  C   LIG    1        2.434  -4.830  -3.443  0.00  0.00    +0.010 C 
ATOM     11  C   LIG    1        0.226  -4.585  -2.300  0.00  0.00    +0.010 C 
ENDBRANCH   7   9
ENDBRANCH   1   7
TORSDOF 4
ENDMDL
MODEL      252
REMARK  Name = ZINC000049811676
REMARK                            x       y       z     vdW  Elec       q    Type
REMARK                         _______ _______ _______ _____ _____    ______ ____
ROOT
ATOM      1  C   LIG    1        1.411  -2.723  -2.361  0.00  0.00    -0.160 A 
ATOM      2  C   LIG    1        1.910  -2.018  -3.461  0.00  0.00    +0.080 A 
ATOM      3  C   LIG    1        2.470  -2.704  -4.519  0.00  0.00    -0.060 A 
ATOM      4  C   LIG    1        2.539  -4.087  -4.493  0.00  0.00    +0.070 A 
ATOM      5  C   LIG    1        2.047  -4.791  -3.407  0.00  0.00    +0.020 A 
ATOM      6 CL   LIG    1        3.090  -1.832  -5.886  0.00  0.00    -0.060 Cl
ATOM      7  C   LIG    1        1.489  -4.119  -2.340  0.00  0.00    -0.020 A 
ATOM      8  C   LIG    1        0.954  -4.888  -1.160  0.00  0.00    +0.100 C 
ENDROOT
BRANCH   1   9
ATOM      9  C   LIG    1        0.812  -1.999  -1.228  0.00  0.00    +0.400 C 
ATOM     10  O   LIG    1        0.479  -2.602  -0.231  0.00  0.00    -0.440 OA
BRANCH   9  11
ATOM     11  C   LIG    1        0.611  -0.507  -1.308  0.00  0.00    +0.030 C 
BRANCH  11  13
ATOM     12  C   LIG    1       -0.227   1.507  -0.091  0.00  0.00    +0.030 C 
ATOM     13  C   LIG    1       -0.024  -0.007  -0.009  0.00  0.00    +0.020 C 
ENDBRANCH  11  13
ENDBRANCH   9  11
ENDBRANCH   1   9
TORSDOF 3
ENDMDL
MODEL      253
REMARK  Name = ZINC000049946768
REMARK                            x       y       z     vdW  Elec       q    Type
REMARK                         _______ _______ _______ _____ _____    ______ ____
ROOT
ATOM      1  C   LIG    1        1.120  -2.162  -1.077  0.00  0.00    -0.020 C 
ATOM      2  C   LIG    1        1.575  -3.219  -2.086  0.00  0.00    +0.010 C 
ENDROOT
BRANCH   1   3
ATOM      3  C   LIG    1        1.563  -0.777  -1.554  0.00  0.00    -0.010 C 
ATOM      4  C   LIG    1        1.011  -0.521  -2.958  0.00  0.00    +0.020 C 
BRANCH   3   6
ATOM      5  C   LIG    1        1.457   1.673  -1.080  0.00  0.00    +0.000 C 
ATOM      6  C   LIG    1        1.029   0.288  -0.594  0.00  0.00    +0.010 C 
ENDBRANCH   3   6
ENDBRANCH   1   3
BRANCH   1   7
ATOM      7  C   LIG    1        1.747  -2.456   0.287  0.00  0.00    -0.010 C 
ATOM      8  C   LIG    1        3.094  -1.738   0.395  0.00  0.00    +0.000 C 
BRANCH   7   9
ATOM      9  C   LIG    1        0.815  -1.960   1.395  0.00  0.00    -0.030 C 
ATOM     10  C   LIG    1        1.511  -2.104   2.750  0.00  0.00    +0.010 C 
ATOM     11  C   LIG    1       -0.469  -2.792   1.390  0.00  0.00    +0.010 C 
ENDBRANCH   7   9
ENDBRANCH   1   7
TORSDOF 4
ENDMDL
MODEL      254
REMARK  Name = ZINC000049811675
REMARK                            x       y       z     vdW  Elec       q    Type
REMARK                         _______ _______ _______ _____ _____    ______ ____
ROOT
ATOM      1  C   LIG    1        1.410  -2.723  -2.361  0.00  0.00    -0.170 A 
ATOM      2  C   LIG    1        1.909  -2.018  -3.461  0.00  0.00    +0.080 A 
ATOM      3  C   LIG    1        2.470  -2.703  -4.519  0.00  0.00    +0.010 A 
ATOM      4  C   LIG    1        2.540  -4.084  -4.494  0.00  0.00    +0.070 A 
ATOM      5  C   LIG    1        2.047  -4.791  -3.409  0.00  0.00    -0.050 A 
ATOM      6 CL   LIG    1        2.140  -6.524  -3.389  0.00  0.00    -0.060 Cl
ATOM      7  C   LIG    1        1.489  -4.119  -2.340  0.00  0.00    -0.020 A 
ATOM      8  C   LIG    1        0.954  -4.888  -1.160  0.00  0.00    +0.120 C 
ENDROOT
BRANCH   1   9
ATOM      9  C   LIG    1        0.809  -1.999  -1.229  0.00  0.00    +0.390 C 
ATOM     10  O   LIG    1        0.477  -2.602  -0.232  0.00  0.00    -0.440 OA
BRANCH   9  11
ATOM     11  C   LIG    1        0.608  -0.508  -1.310  0.00  0.00    +0.030 C 
BRANCH  11  13
ATOM     12  C   LIG    1       -0.233   1.506  -0.094  0.00  0.00    +0.030 C 
ATOM     13  C   LIG    1       -0.028  -0.008  -0.012  0.00  0.00    +0.020 C 
ENDBRANCH  11  13
ENDBRANCH   9  11
ENDBRANCH   1   9
TORSDOF 3
ENDMDL
MODEL      255
REMARK  Name = ZINC000001575609
REMARK                            x       y       z     vdW  Elec       q    Type
REMARK                         _______ _______ _______ _____ _____    ______ ____
ROOT
ATOM      1  C   LIG    1       -1.433  -0.534   0.013  0.00  0.00    -0.020 C 
ATOM      2  C   LIG    1       -2.154  -0.092  -1.260  0.00  0.00    +0.020 C 
ATOM      3  C   LIG    1       -3.655  -0.359  -1.127  0.00  0.00    +0.010 C 
ATOM      4  C   LIG    1       -4.299  -0.361  -2.515  0.00  0.00    +0.000 C 
ATOM      5  C   LIG    1       -4.818  -1.763  -2.838  0.00  0.00    +0.000 C 
ATOM      6  C   LIG    1       -3.691  -2.600  -3.447  0.00  0.00    +0.010 C 
ATOM      7  C   LIG    1       -3.342  -3.752  -2.503  0.00  0.00    +0.010 C 
ATOM      8  C   LIG    1       -1.864  -4.113  -2.662  0.00  0.00    +0.000 C 
ATOM      9  C   LIG    1       -1.180  -4.092  -1.294  0.00  0.00    +0.000 C 
ATOM     10  C   LIG    1       -0.635  -2.689  -1.012  0.00  0.00    +0.010 C 
ATOM     11  C   LIG    1       -1.427  -2.055   0.130  0.00  0.00    +0.020 C 
ENDROOT
BRANCH   1  12
ATOM     12  C   LIG    1        0.002  -0.004   0.002  0.00  0.00    +0.170 C 
BRANCH  12  13
ATOM     13  O   LIG    1       -0.017   1.425   0.010  0.00  0.00    -0.570 OA
ATOM     14  H   LIG    1        0.861   1.830   0.004  0.00  0.00    +0.380 HD
ENDBRANCH  12  13
ENDBRANCH   1  12
TORSDOF 2
ENDMDL
MODEL      256
REMARK  Name = ZINC000001600591
REMARK                            x       y       z     vdW  Elec       q    Type
REMARK                         _______ _______ _______ _____ _____    ______ ____
ROOT
ATOM      1  C   LIG    1       -0.019   1.526   0.010  0.00  0.00    +0.030 C 
ATOM      2  C   LIG    1        0.002  -0.004   0.002  0.00  0.00    -0.020 C 
ATOM      3  C   LIG    1       -1.434  -0.541   0.027  0.00  0.00    +0.020 C 
ATOM      4  C   LIG    1       -1.384  -2.049  -0.207  0.00  0.00    +0.080 C 
ATOM      5  C   LIG    1       -0.398  -2.702   0.725  0.00  0.00    -0.070 A 
ATOM      6  C   LIG    1       -0.500  -4.098   0.912  0.00  0.00    -0.050 A 
ATOM      7  C   LIG    1       -1.494  -4.840   0.253  0.00  0.00    +0.020 A 
ATOM      8  C   LIG    1       -1.572  -6.184   0.451  0.00  0.00    +0.000 A 
ATOM      9  C   LIG    1       -0.679  -6.838   1.298  0.00  0.00    +0.000 A 
ATOM     10  C   LIG    1        0.296  -6.152   1.953  0.00  0.00    +0.020 A 
ATOM     11  C   LIG    1        0.406  -4.762   1.772  0.00  0.00    -0.050 A 
ATOM     12  C   LIG    1        1.400  -4.015   2.426  0.00  0.00    +0.020 A 
ATOM     13  C   LIG    1        1.466  -2.674   2.225  0.00  0.00    +0.010 A 
ATOM     14  C   LIG    1        0.568  -2.009   1.379  0.00  0.00    -0.070 A 
ATOM     15  C   LIG    1        0.727  -0.516   1.244  0.00  0.00    +0.070 C 
ENDROOT
TORSDOF 0
ENDMDL
MODEL      257
REMARK  Name = ZINC000001694733
REMARK                            x       y       z     vdW  Elec       q    Type
REMARK                         _______ _______ _______ _____ _____    ______ ____
ROOT
ATOM      1  C   LIG    1        0.002  -0.004   0.002  0.00  0.00    +0.150 C 
ATOM      2  C   LIG    1        0.742  -0.511   1.242  0.00  0.00    -0.020 C 
ATOM      3  C   LIG    1        0.026  -0.018   2.500  0.00  0.00    +0.020 C 
ATOM      4  C   LIG    1       -1.409  -0.547   2.511  0.00  0.00    -0.020 C 
ATOM      5  C   LIG    1       -2.149  -0.040   1.272  0.00  0.00    +0.020 C 
ATOM      6  C   LIG    1       -1.433  -0.534   0.013  0.00  0.00    +0.030 C 
ENDROOT
BRANCH   1   7
ATOM      7  O   LIG    1       -0.017   1.425   0.010  0.00  0.00    -0.560 OA
ATOM      8  H   LIG    1        0.861   1.830   0.004  0.00  0.00    +0.380 HD
ENDBRANCH   1   7
BRANCH   4   9
ATOM      9  C   LIG    1       -2.126  -0.054   3.770  0.00  0.00    +0.010 C 
BRANCH   9  10
ATOM     10  C   LIG    1       -3.518  -0.683   3.844  0.00  0.00    -0.020 C 
ATOM     11  C   LIG    1       -3.385  -2.197   4.022  0.00  0.00    +0.010 C 
ATOM     12  C   LIG    1       -4.777  -2.826   4.096  0.00  0.00    +0.000 C 
ATOM     13  C   LIG    1       -5.540  -2.239   5.285  0.00  0.00    +0.000 C 
ATOM     14  C   LIG    1       -5.673  -0.725   5.108  0.00  0.00    +0.000 C 
ATOM     15  C   LIG    1       -4.280  -0.096   5.034  0.00  0.00    +0.000 C 
ENDBRANCH   9  10
ENDBRANCH   4   9
TORSDOF 3
ENDMDL
MODEL      258
REMARK  Name = ZINC000001692812
REMARK                            x       y       z     vdW  Elec       q    Type
REMARK                         _______ _______ _______ _____ _____    ______ ____
ROOT
ATOM      1  C   LIG    1        0.777  -1.810  -1.336  0.00  0.00    +0.130 A 
ATOM      2  C   LIG    1        0.235  -2.666  -0.373  0.00  0.00    -0.060 A 
ATOM      3  C   LIG    1        0.325  -4.016  -0.507  0.00  0.00    +0.060 A 
ATOM      4  C   LIG    1        0.970  -4.564  -1.630  0.00  0.00    -0.080 A 
ATOM      5  C   LIG    1        1.081  -5.954  -1.800  0.00  0.00    +0.040 A 
ATOM      6  C   LIG    1        1.712  -6.450  -2.900  0.00  0.00    -0.010 A 
ATOM      7  C   LIG    1        2.253  -5.598  -3.862  0.00  0.00    +0.010 A 
ATOM      8  C   LIG    1        2.165  -4.247  -3.730  0.00  0.00    +0.010 A 
ATOM      9  C   LIG    1        1.520  -3.697  -2.608  0.00  0.00    -0.010 A 
ATOM     10  C   LIG    1        1.406  -2.308  -2.442  0.00  0.00    -0.120 A 
ATOM     11  C   LIG    1        1.979  -1.371  -3.474  0.00  0.00    +0.110 C 
ENDROOT
BRANCH   1  12
ATOM     12  O   LIG    1        0.671  -0.465  -1.174  0.00  0.00    -0.310 OA
BRANCH  12  14
ATOM     13  C   LIG    1       -0.019   1.526   0.010  0.00  0.00    +0.070 C 
ATOM     14  C   LIG    1        0.002  -0.004   0.002  0.00  0.00    +0.170 C 
ENDBRANCH  12  14
ENDBRANCH   1  12
TORSDOF 2
ENDMDL
MODEL      259
REMARK  Name = ZINC000001688626
REMARK                            x       y       z     vdW  Elec       q    Type
REMARK                         _______ _______ _______ _____ _____    ______ ____
ROOT
ATOM      1  C   LIG    1        0.002  -0.004   0.002  0.00  0.00    +0.220 A 
ATOM      2  C   LIG    1       -1.183  -0.709   0.004  0.00  0.00    -0.050 A 
ATOM      3  C   LIG    1       -1.172  -2.118  -0.004  0.00  0.00    -0.010 A 
ATOM      4  C   LIG    1        0.043  -2.787  -0.013  0.00  0.00    -0.180 A 
ATOM      5  S   LIG    1       -0.207  -4.526  -0.021  0.00  0.00    +0.080 S 
ATOM      6  C   LIG    1       -1.956  -4.369  -0.011  0.00  0.00    -0.120 A 
ATOM      7  C   LIG    1       -2.943  -5.364  -0.011  0.00  0.00    +0.040 A 
ATOM      8  C   LIG    1       -4.275  -5.022  -0.004  0.00  0.00    +0.030 A 
ATOM      9  C   LIG    1       -4.651  -3.687   0.005  0.00  0.00    +0.010 A 
ATOM     10  C   LIG    1       -3.697  -2.700   0.005  0.00  0.00    +0.050 A 
ATOM     11  C   LIG    1        1.238  -2.057  -0.015  0.00  0.00    +0.090 A 
ATOM     12  C   LIG    1       -2.329  -3.033  -0.003  0.00  0.00    -0.070 A 
ATOM     13  C   LIG    1        1.218  -0.683  -0.013  0.00  0.00    -0.040 A 
ENDROOT
BRANCH   1  14
ATOM     14  N   LIG    1       -0.017   1.396   0.010  0.00  0.00    -0.880 N 
ATOM     15  H   LIG    1       -0.863   1.869   0.016  0.00  0.00    +0.400 HD
ATOM     16  H   LIG    1        0.816   1.892   0.004  0.00  0.00    +0.400 HD
ENDBRANCH   1  14
TORSDOF 1
ENDMDL
MODEL      260
REMARK  Name = ZINC000001712082
REMARK                            x       y       z     vdW  Elec       q    Type
REMARK                         _______ _______ _______ _____ _____    ______ ____
ROOT
ATOM      1  C   LIG    1        3.069  -0.679   2.589  0.00  0.00    -0.080 A 
ATOM      2  C   LIG    1        2.344  -1.635   3.291  0.00  0.00    -0.010 A 
ATOM      3  C   LIG    1        2.905  -2.258   4.388  0.00  0.00    +0.030 A 
ATOM      4  C   LIG    1        4.189  -1.932   4.788  0.00  0.00    +0.000 A 
ATOM      5  C   LIG    1        4.913  -0.982   4.092  0.00  0.00    +0.030 A 
ATOM      6  C   LIG    1        4.360  -0.359   2.991  0.00  0.00    +0.030 A 
ENDROOT
BRANCH   1   7
ATOM      7  S   LIG    1        2.356   0.119   1.189  0.00  0.00    -0.110 S 
BRANCH   7   8
ATOM      8  C   LIG    1        0.788  -0.767   0.969  0.00  0.00    +0.010 C 
ATOM      9  C   LIG    1        1.070  -2.186   0.472  0.00  0.00    +0.050 C 
BRANCH   8  11
ATOM     10  C   LIG    1       -0.460   1.345   0.496  0.00  0.00    +0.030 C 
ATOM     11  C   LIG    1       -0.075  -0.029  -0.056  0.00  0.00    +0.050 C 
ENDBRANCH   8  11
ENDBRANCH   7   8
ENDBRANCH   1   7
TORSDOF 3
ENDMDL
MODEL      261
REMARK  Name = ZINC000005162823
REMARK                            x       y       z     vdW  Elec       q    Type
REMARK                         _______ _______ _______ _____ _____    ______ ____
ROOT
ATOM      1  C   LIG    1        0.002  -0.004   0.002  0.00  0.00    +0.250 A 
ATOM      2  C   LIG    1       -1.186  -0.708   0.004  0.00  0.00    -0.060 A 
ATOM      3  C   LIG    1       -1.172  -2.094  -0.004  0.00  0.00    +0.070 A 
ATOM      4  C   LIG    1        0.021  -2.774  -0.013  0.00  0.00    -0.010 A 
ATOM      5  C   LIG    1        1.244  -2.073  -0.014  0.00  0.00    -0.010 A 
ATOM      6  C   LIG    1        2.609  -2.632  -0.022  0.00  0.00    -0.060 A 
ATOM      7  C   LIG    1        2.990  -3.988  -0.025  0.00  0.00    +0.050 A 
ATOM      8  C   LIG    1        4.319  -4.334  -0.021  0.00  0.00    +0.010 A 
ATOM      9  C   LIG    1        5.297  -3.351  -0.015  0.00  0.00    +0.030 A 
ATOM     10  C   LIG    1        4.942  -2.023  -0.019  0.00  0.00    +0.040 A 
ATOM     11  C   LIG    1        3.591  -1.651  -0.017  0.00  0.00    -0.120 A 
ATOM     12  S   LIG    1        2.868  -0.050  -0.015  0.00  0.00    +0.080 S 
ATOM     13  C   LIG    1        1.232  -0.688  -0.013  0.00  0.00    -0.200 A 
ENDROOT
BRANCH   1  14
ATOM     14  N   LIG    1       -0.017   1.395   0.010  0.00  0.00    -0.870 N 
ATOM     15  H   LIG    1       -0.863   1.868   0.016  0.00  0.00    +0.400 HD
ATOM     16  H   LIG    1        0.817   1.891   0.004  0.00  0.00    +0.400 HD
ENDBRANCH   1  14
TORSDOF 1
ENDMDL
MODEL      262
REMARK  Name = ZINC000001724606
REMARK                            x       y       z     vdW  Elec       q    Type
REMARK                         _______ _______ _______ _____ _____    ______ ____
ROOT
ATOM      1  N   LIG    1       -2.790  -2.565  -0.111  0.00  0.00    -0.750 N 
ATOM      2  H   LIG    1       -3.534  -1.948  -0.027  0.00  0.00    +0.400 HD
ENDROOT
BRANCH   1   3
ATOM      3  C   LIG    1       -3.029  -3.937  -0.221  0.00  0.00    +0.220 A 
ATOM      4  C   LIG    1       -1.965  -4.822  -0.336  0.00  0.00    -0.060 A 
ATOM      5  C   LIG    1       -2.204  -6.178  -0.445  0.00  0.00    +0.070 A 
ATOM      6  C   LIG    1       -3.503  -6.655  -0.440  0.00  0.00    -0.090 A 
ATOM      7  C   LIG    1       -4.566  -5.776  -0.327  0.00  0.00    +0.070 A 
ATOM      8 CL   LIG    1       -3.800  -8.360  -0.577  0.00  0.00    -0.080 Cl
ATOM      9  C   LIG    1       -4.332  -4.419  -0.212  0.00  0.00    -0.060 A 
ENDBRANCH   1   3
BRANCH   1  10
ATOM     10  C   LIG    1       -1.416  -2.058  -0.121  0.00  0.00    +0.240 C 
BRANCH  10  11
ATOM     11  C   LIG    1       -1.433  -0.534   0.013  0.00  0.00    +0.010 C 
BRANCH  11  13
ATOM     12  C   LIG    1       -0.019   1.526   0.010  0.00  0.00    +0.030 C 
ATOM     13  C   LIG    1        0.002  -0.004   0.002  0.00  0.00    -0.020 C 
ATOM     14  C   LIG    1        0.742  -0.511   1.242  0.00  0.00    +0.030 C 
ENDBRANCH  11  13
ENDBRANCH  10  11
ENDBRANCH   1  10
TORSDOF 4
ENDMDL
MODEL      263
REMARK  Name = ZINC000001723857
REMARK                            x       y       z     vdW  Elec       q    Type
REMARK                         _______ _______ _______ _____ _____    ______ ____
ROOT
ATOM      1  S   LIG    1       -3.118  -2.686  -0.108  0.00  0.00    -0.120 S 
ENDROOT
BRANCH   1   2
ATOM      2  C   LIG    1       -2.899  -4.426  -0.269  0.00  0.00    -0.080 A 
ATOM      3  C   LIG    1       -1.620  -4.962  -0.361  0.00  0.00    -0.020 A 
ATOM      4  C   LIG    1       -1.452  -6.327  -0.488  0.00  0.00    +0.030 A 
ATOM      5  C   LIG    1       -2.555  -7.161  -0.522  0.00  0.00    +0.000 A 
ATOM      6  C   LIG    1       -3.830  -6.631  -0.431  0.00  0.00    +0.030 A 
ATOM      7  C   LIG    1       -4.005  -5.268  -0.299  0.00  0.00    +0.030 A 
ENDBRANCH   1   2
BRANCH   1   8
ATOM      8  C   LIG    1       -1.416  -2.058  -0.121  0.00  0.00    +0.070 C 
BRANCH   8   9
ATOM      9  C   LIG    1       -1.433  -0.534   0.013  0.00  0.00    +0.040 C 
BRANCH   9  11
ATOM     10  C   LIG    1       -0.019   1.526   0.010  0.00  0.00    +0.030 C 
ATOM     11  C   LIG    1        0.002  -0.004   0.002  0.00  0.00    -0.020 C 
ATOM     12  C   LIG    1        0.742  -0.511   1.242  0.00  0.00    +0.020 C 
ENDBRANCH   9  11
ENDBRANCH   8   9
ENDBRANCH   1   8
TORSDOF 4
ENDMDL
MODEL      264
REMARK  Name = ZINC000001725631
REMARK                            x       y       z     vdW  Elec       q    Type
REMARK                         _______ _______ _______ _____ _____    ______ ____
ROOT
ATOM      1  S   LIG    1        1.292   0.862   2.274  0.00  0.00    -0.100 S 
ENDROOT
BRANCH   1   7
ATOM      2  C   LIG    1       -0.019   1.526   0.010  0.00  0.00    +0.050 C 
ATOM      3  C   LIG    1        0.002  -0.004   0.002  0.00  0.00    +0.010 C 
ATOM      4  C   LIG    1       -1.438  -0.552   0.066  0.00  0.00    +0.020 C 
ATOM      5  C   LIG    1       -1.326  -1.811   0.961  0.00  0.00    +0.020 C 
ATOM      6  C   LIG    1       -0.297  -1.377   2.034  0.00  0.00    +0.030 C 
ATOM      7  C   LIG    1        0.729  -0.528   1.253  0.00  0.00    +0.010 C 
ENDBRANCH   1   7
BRANCH   1   8
ATOM      8  C   LIG    1        2.175   0.066   3.574  0.00  0.00    -0.100 A 
ATOM      9  C   LIG    1        2.285  -1.319   3.596  0.00  0.00    -0.010 A 
ATOM     10  C   LIG    1        2.978  -1.940   4.616  0.00  0.00    +0.020 A 
ATOM     11  C   LIG    1        3.562  -1.184   5.617  0.00  0.00    -0.010 A 
ATOM     12  C   LIG    1        3.454   0.195   5.599  0.00  0.00    +0.030 A 
ATOM     13  C   LIG    1        2.768   0.822   4.578  0.00  0.00    +0.030 A 
ENDBRANCH   1   8
TORSDOF 2
ENDMDL
MODEL      265
REMARK  Name = ZINC000001857507
REMARK                            x       y       z     vdW  Elec       q    Type
REMARK                         _______ _______ _______ _____ _____    ______ ____
ROOT
ATOM      1  C   LIG    1       -0.016   1.352   0.009  0.00  0.00    +0.220 A 
ATOM      2  C   LIG    1        1.246   1.820  -0.000  0.00  0.00    -0.150 A 
ATOM      3  C   LIG    1        1.702   3.219   0.002  0.00  0.00    +0.070 C 
ATOM      4  C   LIG    1        2.987   3.644  -0.007  0.00  0.00    -0.010 C 
ATOM      5  C   LIG    1        4.205   2.935  -0.021  0.00  0.00    +0.010 C 
ATOM      6  C   LIG    1        4.479   1.611  -0.030  0.00  0.00    +0.030 C 
ATOM      7  C   LIG    1        3.503   0.508  -0.028  0.00  0.00    -0.010 A 
ATOM      8  C   LIG    1        4.066  -0.763  -0.041  0.00  0.00    +0.000 A 
ATOM      9  C   LIG    1        3.227  -1.870  -0.041  0.00  0.00    +0.050 A 
ATOM     10  C   LIG    1        1.852  -1.744  -0.027  0.00  0.00    +0.020 A 
ATOM     11  C   LIG    1        1.263  -0.480  -0.013  0.00  0.00    +0.070 A 
ATOM     12  C   LIG    1        2.108   0.625  -0.014  0.00  0.00    -0.110 A 
ATOM     13  O   LIG    1        0.002  -0.004   0.002  0.00  0.00    -0.190 OA
ENDROOT
TORSDOF 0
ENDMDL
MODEL      266
REMARK  Name = ZINC000002379811
REMARK                            x       y       z     vdW  Elec       q    Type
REMARK                         _______ _______ _______ _____ _____    ______ ____
ROOT
ATOM      1  C   LIG    1       -1.412  -0.526   0.013  0.00  0.00    -0.090 A 
ATOM      2  C   LIG    1       -1.860  -1.327  -1.023  0.00  0.00    +0.050 A 
ATOM      3  C   LIG    1       -3.156  -1.810  -1.023  0.00  0.00    -0.090 A 
ATOM      4  C   LIG    1       -4.012  -1.498   0.013  0.00  0.00    +0.060 A 
ATOM      5  C   LIG    1       -3.567  -0.690   1.063  0.00  0.00    -0.190 A 
ATOM      6  C   LIG    1       -2.254  -0.209   1.058  0.00  0.00    +0.070 A 
ENDROOT
BRANCH   1   8
ATOM      7  C   LIG    1       -0.019   1.526   0.010  0.00  0.00    +0.030 C 
ATOM      8  C   LIG    1        0.002  -0.004   0.002  0.00  0.00    +0.020 C 
ATOM      9  C   LIG    1        0.742  -0.511   1.242  0.00  0.00    +0.030 C 
ENDBRANCH   1   8
BRANCH   3  10
ATOM     10  C   LIG    1       -3.634  -2.681  -2.156  0.00  0.00    +0.020 C 
ATOM     11  C   LIG    1       -4.823  -2.011  -2.848  0.00  0.00    +0.030 C 
ATOM     12  C   LIG    1       -4.064  -4.043  -1.607  0.00  0.00    +0.030 C 
ENDBRANCH   3  10
BRANCH   5  13
ATOM     13  C   LIG    1       -4.474  -0.352   2.172  0.00  0.00    +0.490 C 
ATOM     14  O   LIG    1       -4.084   0.349   3.082  0.00  0.00    -0.460 OA
ENDBRANCH   5  13
TORSDOF 3
ENDMDL
MODEL      267
REMARK  Name = ZINC000002528290
REMARK                            x       y       z     vdW  Elec       q    Type
REMARK                         _______ _______ _______ _____ _____    ______ ____
ROOT
ATOM      1  C   LIG    1       -0.019   1.526   0.010  0.00  0.00    +0.030 C 
ATOM      2  C   LIG    1        0.002  -0.004   0.002  0.00  0.00    -0.010 C 
ATOM      3  C   LIG    1       -1.429  -0.538   0.026  0.00  0.00    +0.070 C 
ATOM      4  C   LIG    1       -1.434  -2.029   0.242  0.00  0.00    -0.070 A 
ATOM      5  C   LIG    1       -2.591  -2.725  -0.082  0.00  0.00    +0.000 A 
ATOM      6  C   LIG    1       -2.661  -4.091   0.098  0.00  0.00    +0.000 A 
ATOM      7  C   LIG    1       -1.571  -4.773   0.605  0.00  0.00    +0.000 A 
ATOM      8  C   LIG    1       -0.419  -4.083   0.925  0.00  0.00    +0.000 A 
ATOM      9  C   LIG    1       -0.346  -2.709   0.742  0.00  0.00    -0.060 A 
ATOM     10  C   LIG    1        0.947  -2.022   1.097  0.00  0.00    -0.030 C 
ATOM     11  C   LIG    1        1.973  -2.274  -0.009  0.00  0.00    +0.040 C 
ATOM     12  C   LIG    1        1.475  -2.592   2.415  0.00  0.00    +0.040 C 
ATOM     13  C   LIG    1        0.732  -0.517   1.249  0.00  0.00    +0.040 C 
ENDROOT
TORSDOF 0
ENDMDL
MODEL      268
REMARK  Name = ZINC000002526979
REMARK                            x       y       z     vdW  Elec       q    Type
REMARK                         _______ _______ _______ _____ _____    ______ ____
ROOT
ATOM      1  C   LIG    1       -0.017   1.364   0.009  0.00  0.00    +0.220 A 
ATOM      2  C   LIG    1        1.239   1.839   0.000  0.00  0.00    -0.050 A 
ATOM      3  C   LIG    1        2.135   0.680  -0.015  0.00  0.00    -0.110 A 
ATOM      4  C   LIG    1        3.522   0.529  -0.029  0.00  0.00    +0.060 A 
ATOM      5  C   LIG    1        4.068  -0.747  -0.042  0.00  0.00    -0.050 A 
ATOM      6  C   LIG    1        3.232  -1.868  -0.040  0.00  0.00    +0.050 A 
ATOM      7  C   LIG    1        1.874  -1.725  -0.025  0.00  0.00    -0.010 A 
ATOM      8  C   LIG    1        1.304  -0.455  -0.013  0.00  0.00    +0.100 A 
ATOM      9  N   LIG    1        0.002  -0.004   0.002  0.00  0.00    -0.600 N 
ATOM     10  H   LIG    1       -0.784  -0.572   0.006  0.00  0.00    +0.420 HD
ENDROOT
BRANCH   5  11
ATOM     11  C   LIG    1        5.542  -0.922  -0.057  0.00  0.00    -0.050 A 
ATOM     12  C   LIG    1        6.398   0.116  -0.053  0.00  0.00    -0.040 A 
ATOM     13  S   LIG    1        8.051  -0.485  -0.074  0.00  0.00    +0.100 S 
ATOM     14  C   LIG    1        7.483  -2.149  -0.087  0.00  0.00    -0.040 A 
ATOM     15  C   LIG    1        6.152  -2.175  -0.070  0.00  0.00    +0.010 A 
ENDBRANCH   5  11
TORSDOF 1
ENDMDL
MODEL      269
REMARK  Name = ZINC000002528278
REMARK                            x       y       z     vdW  Elec       q    Type
REMARK                         _______ _______ _______ _____ _____    ______ ____
ROOT
ATOM      1  C   LIG    1       -4.614   0.330  -1.134  0.00  0.00    -0.080 A 
ATOM      2  C   LIG    1       -5.688  -0.189  -0.435  0.00  0.00    +0.000 A 
ATOM      3  C   LIG    1       -6.894   0.486  -0.420  0.00  0.00    +0.010 A 
ATOM      4  C   LIG    1       -7.027   1.680  -1.103  0.00  0.00    -0.010 A 
ATOM      5  C   LIG    1       -5.952   2.200  -1.801  0.00  0.00    -0.080 A 
ATOM      6  C   LIG    1       -6.097   3.502  -2.547  0.00  0.00    +0.090 C 
ATOM      7  C   LIG    1       -4.745   1.527  -1.813  0.00  0.00    +0.000 A 
ENDROOT
BRANCH   1   8
ATOM      8  C   LIG    1       -3.299  -0.406  -1.150  0.00  0.00    +0.060 C 
BRANCH   8   9
ATOM      9  C   LIG    1       -2.438   0.061   0.026  0.00  0.00    +0.050 C 
BRANCH   9  12
ATOM     10  C   LIG    1       -0.018   1.503   0.010  0.00  0.00    +0.080 C 
ATOM     11  C   LIG    1        0.002  -0.004   0.002  0.00  0.00    -0.130 C 
ATOM     12  C   LIG    1       -1.123  -0.674   0.009  0.00  0.00    -0.060 C 
ATOM     13  C   LIG    1        1.317  -0.740  -0.015  0.00  0.00    +0.070 C 
ENDBRANCH   9  12
ENDBRANCH   8   9
ENDBRANCH   1   8
TORSDOF 3
ENDMDL
MODEL      270
REMARK  Name = ZINC000002527003
REMARK                            x       y       z     vdW  Elec       q    Type
REMARK                         _______ _______ _______ _____ _____    ______ ____
ROOT
ATOM      1  C   LIG    1        1.526  -1.999  -0.023  0.00  0.00    +0.000 A 
ATOM      2  C   LIG    1        0.471  -2.922  -0.024  0.00  0.00    +0.000 A 
ATOM      3  C   LIG    1        0.727  -4.261  -0.034  0.00  0.00    +0.060 A 
ATOM      4  C   LIG    1        2.047  -4.720  -0.044  0.00  0.00    -0.110 A 
ATOM      5  C   LIG    1        2.658  -6.051  -0.056  0.00  0.00    -0.050 A 
ATOM      6  C   LIG    1        3.989  -5.873  -0.061  0.00  0.00    +0.220 A 
ATOM      7  N   LIG    1        4.281  -4.536  -0.054  0.00  0.00    -0.600 N 
ATOM      8  H   LIG    1        5.176  -4.160  -0.057  0.00  0.00    +0.420 HD
ATOM      9  C   LIG    1        3.115  -3.802  -0.044  0.00  0.00    +0.100 A 
ATOM     10  C   LIG    1        2.845  -2.440  -0.039  0.00  0.00    +0.000 A 
ENDROOT
BRANCH   1  14
ATOM     11  C   LIG    1       -0.017   1.376   0.010  0.00  0.00    +0.010 A 
ATOM     12  C   LIG    1        1.186   1.958   0.001  0.00  0.00    -0.050 A 
ATOM     13  S   LIG    1        2.442   0.728  -0.017  0.00  0.00    +0.110 S 
ATOM     14  C   LIG    1        1.234  -0.551  -0.013  0.00  0.00    -0.140 A 
ATOM     15  C   LIG    1        0.002  -0.004   0.002  0.00  0.00    +0.010 A 
ENDBRANCH   1  14
TORSDOF 1
ENDMDL
MODEL      271
REMARK  Name = ZINC000095729842
REMARK                            x       y       z     vdW  Elec       q    Type
REMARK                         _______ _______ _______ _____ _____    ______ ____
ROOT
ATOM      1  C   LIG    1       -1.709  -0.424   0.016  0.00  0.00    -0.070 A 
ATOM      2  C   LIG    1       -2.672   0.578   0.025  0.00  0.00    +0.000 A 
ATOM      3  C   LIG    1       -4.012   0.246   0.035  0.00  0.00    -0.050 A 
ATOM      4  C   LIG    1       -4.397  -1.083   0.037  0.00  0.00    -0.050 A 
ATOM      5  C   LIG    1       -3.441  -2.083   0.028  0.00  0.00    -0.050 A 
ATOM      6  C   LIG    1       -3.864  -3.530   0.028  0.00  0.00    +0.110 C 
ATOM      7 CL   LIG    1       -6.083  -1.496   0.050  0.00  0.00    -0.060 Cl
ATOM      8  C   LIG    1       -5.057   1.333   0.045  0.00  0.00    +0.110 C 
ATOM      9  C   LIG    1       -2.099  -1.758   0.013  0.00  0.00    +0.040 A 
ENDROOT
BRANCH   1  11
ATOM     10  C   LIG    1       -0.022   1.810   0.012  0.00  0.00    +0.140 C 
ATOM     11  S   LIG    1        0.002  -0.004   0.002  0.00  0.00    -0.110 S 
ENDBRANCH   1  11
TORSDOF 1
ENDMDL
MODEL      272
REMARK  Name = ZINC000095729855
REMARK                            x       y       z     vdW  Elec       q    Type
REMARK                         _______ _______ _______ _____ _____    ______ ____
ROOT
ATOM      1  C   LIG    1        0.880  -0.397   1.478  0.00  0.00    -0.090 A 
ATOM      2  C   LIG    1        1.344   0.620   2.304  0.00  0.00    -0.010 A 
ATOM      3  C   LIG    1        2.031   0.309   3.461  0.00  0.00    +0.020 A 
ATOM      4  C   LIG    1        2.259  -1.013   3.797  0.00  0.00    -0.080 A 
ATOM      5  C   LIG    1        1.798  -2.028   2.978  0.00  0.00    +0.030 A 
ATOM      6  C   LIG    1        1.105  -1.724   1.823  0.00  0.00    +0.030 A 
ENDROOT
BRANCH   1   8
ATOM      7  C   LIG    1       -0.022   1.810   0.012  0.00  0.00    +0.130 C 
ATOM      8  S   LIG    1        0.002  -0.004   0.002  0.00  0.00    -0.120 S 
ENDBRANCH   1   8
BRANCH   4   9
ATOM      9  C   LIG    1        3.010  -1.349   5.060  0.00  0.00    +0.060 C 
BRANCH   9  10
ATOM     10  C   LIG    1        2.021  -1.490   6.219  0.00  0.00    -0.020 C 
ATOM     11  C   LIG    1        2.791  -1.708   7.523  0.00  0.00    +0.020 C 
ATOM     12  C   LIG    1        1.103  -2.688   5.963  0.00  0.00    +0.010 C 
ENDBRANCH   9  10
ENDBRANCH   4   9
TORSDOF 3
ENDMDL
MODEL      273
REMARK  Name = ZINC000004290656
REMARK                            x       y       z     vdW  Elec       q    Type
REMARK                         _______ _______ _______ _____ _____    ______ ____
ROOT
ATOM      1  C   LIG    1       -1.709  -0.424   0.016  0.00  0.00    -0.090 A 
ATOM      2  C   LIG    1       -2.110  -1.777   0.019  0.00  0.00    -0.010 A 
ATOM      3  C   LIG    1       -1.167  -2.816   0.010  0.00  0.00    +0.040 A 
ATOM      4  C   LIG    1       -1.589  -4.111   0.013  0.00  0.00    +0.030 A 
ATOM      5  C   LIG    1       -2.948  -4.421   0.025  0.00  0.00    +0.020 A 
ATOM      6  C   LIG    1       -3.891  -3.439   0.033  0.00  0.00    +0.030 A 
ATOM      7  C   LIG    1       -3.491  -2.092   0.030  0.00  0.00    -0.070 A 
ATOM      8  C   LIG    1       -4.438  -1.051   0.039  0.00  0.00    +0.110 A 
ATOM      9  C   LIG    1       -4.022   0.247   0.037  0.00  0.00    +0.010 A 
ATOM     10  F   LIG    1       -5.758  -1.339   0.050  0.00  0.00    -0.130 F 
ATOM     11  C   LIG    1       -2.668   0.567   0.031  0.00  0.00    +0.030 A 
ENDROOT
BRANCH   1  13
ATOM     12  C   LIG    1       -0.022   1.810   0.012  0.00  0.00    +0.140 C 
ATOM     13  S   LIG    1        0.002  -0.004   0.002  0.00  0.00    -0.090 S 
ENDBRANCH   1  13
TORSDOF 1
ENDMDL
MODEL      274
REMARK  Name = ZINC000001699355
REMARK                            x       y       z     vdW  Elec       q    Type
REMARK                         _______ _______ _______ _____ _____    ______ ____
ROOT
ATOM      1  C   LIG    1        0.880  -0.397   1.478  0.00  0.00    -0.090 A 
ATOM      2  C   LIG    1        1.344   0.620   2.304  0.00  0.00    -0.010 A 
ATOM      3  C   LIG    1        2.031   0.309   3.461  0.00  0.00    +0.020 A 
ATOM      4  C   LIG    1        2.259  -1.013   3.797  0.00  0.00    -0.080 A 
ATOM      5  C   LIG    1        1.798  -2.028   2.978  0.00  0.00    +0.030 A 
ATOM      6  C   LIG    1        1.105  -1.724   1.823  0.00  0.00    +0.030 A 
ENDROOT
BRANCH   4   7
ATOM      7  C   LIG    1        3.010  -1.349   5.060  0.00  0.00    +0.020 C 
ATOM      8  C   LIG    1        4.270  -2.142   4.708  0.00  0.00    +0.030 C 
ATOM      9  C   LIG    1        2.117  -2.190   5.976  0.00  0.00    +0.030 C 
ENDBRANCH   4   7
BRANCH   1  11
ATOM     10  C   LIG    1       -0.022   1.810   0.012  0.00  0.00    +0.130 C 
ATOM     11  S   LIG    1        0.002  -0.004   0.002  0.00  0.00    -0.120 S 
ENDBRANCH   1  11
TORSDOF 2
ENDMDL
MODEL      275
REMARK  Name = ZINC000095729821
REMARK                            x       y       z     vdW  Elec       q    Type
REMARK                         _______ _______ _______ _____ _____    ______ ____
ROOT
ATOM      1  C   LIG    1       -1.709  -0.424   0.016  0.00  0.00    -0.090 A 
ATOM      2  C   LIG    1       -2.672   0.578   0.025  0.00  0.00    -0.010 A 
ATOM      3  C   LIG    1       -4.012   0.245   0.036  0.00  0.00    +0.020 A 
ATOM      4  C   LIG    1       -4.397  -1.083   0.039  0.00  0.00    +0.010 A 
ATOM      5  C   LIG    1       -3.441  -2.083   0.030  0.00  0.00    +0.030 A 
ATOM      6  C   LIG    1       -2.099  -1.758   0.013  0.00  0.00    -0.060 A 
ENDROOT
BRANCH   6   7
ATOM      7  C   LIG    1       -1.059  -2.848   0.004  0.00  0.00    +0.020 C 
ATOM      8  C   LIG    1       -1.244  -3.719  -1.240  0.00  0.00    +0.040 C 
ATOM      9  C   LIG    1       -1.213  -3.711   1.258  0.00  0.00    +0.040 C 
ENDBRANCH   6   7
BRANCH   1  11
ATOM     10  C   LIG    1       -0.022   1.810   0.012  0.00  0.00    +0.120 C 
ATOM     11  S   LIG    1        0.002  -0.004   0.002  0.00  0.00    -0.110 S 
ENDBRANCH   1  11
TORSDOF 2
ENDMDL
MODEL      276
REMARK  Name = ZINC000002564159
REMARK                            x       y       z     vdW  Elec       q    Type
REMARK                         _______ _______ _______ _____ _____    ______ ____
ROOT
ATOM      1  C   LIG    1       -0.286   0.067  -2.511  0.00  0.00    +0.050 C 
ENDROOT
BRANCH   1   4
ATOM      2  C   LIG    1       -0.349   1.572  -0.127  0.00  0.00    +0.080 C 
ATOM      3  C   LIG    1       -0.252   0.069  -0.070  0.00  0.00    -0.130 C 
ATOM      4  C   LIG    1       -0.281  -0.632  -1.176  0.00  0.00    -0.060 C 
ATOM      5  C   LIG    1       -0.121  -0.628   1.260  0.00  0.00    +0.070 C 
ENDBRANCH   1   4
BRANCH   1   6
ATOM      6  C   LIG    1        0.878  -0.446  -3.360  0.00  0.00    +0.060 C 
BRANCH   6   7
ATOM      7  C   LIG    1        0.873   0.253  -4.695  0.00  0.00    -0.060 C 
ATOM      8  C   LIG    1        1.959   0.843  -5.130  0.00  0.00    -0.130 C 
ATOM      9  C   LIG    1        1.910   1.684  -6.380  0.00  0.00    +0.070 C 
ATOM     10  C   LIG    1        3.256   0.682  -4.380  0.00  0.00    +0.070 C 
ENDBRANCH   6   7
ENDBRANCH   1   6
TORSDOF 3
ENDMDL
MODEL      277
REMARK  Name = ZINC000077921719
REMARK                            x       y       z     vdW  Elec       q    Type
REMARK                         _______ _______ _______ _____ _____    ______ ____
ROOT
ATOM      1  C   LIG    1        0.880  -0.397   1.478  0.00  0.00    -0.080 A 
ATOM      2  C   LIG    1        1.344   0.620   2.304  0.00  0.00    -0.020 A 
ATOM      3  C   LIG    1        2.031   0.309   3.461  0.00  0.00    +0.030 A 
ATOM      4  C   LIG    1        2.259  -1.013   3.797  0.00  0.00    +0.000 A 
ATOM      5  C   LIG    1        1.800  -2.028   2.977  0.00  0.00    -0.060 A 
ATOM      6  C   LIG    1        1.105  -1.724   1.823  0.00  0.00    +0.030 A 
ENDROOT
BRANCH   5   7
ATOM      7  C   LIG    1        2.050  -3.467   3.348  0.00  0.00    +0.020 C 
ATOM      8  C   LIG    1        1.405  -3.765   4.702  0.00  0.00    +0.030 C 
ATOM      9  C   LIG    1        3.557  -3.716   3.435  0.00  0.00    +0.030 C 
ENDBRANCH   5   7
BRANCH   1  11
ATOM     10  C   LIG    1       -0.022   1.810   0.012  0.00  0.00    +0.130 C 
ATOM     11  S   LIG    1        0.002  -0.004   0.002  0.00  0.00    -0.120 S 
ENDBRANCH   1  11
TORSDOF 2
ENDMDL
MODEL      278
REMARK  Name = ZINC000095729833
REMARK                            x       y       z     vdW  Elec       q    Type
REMARK                         _______ _______ _______ _____ _____    ______ ____
ROOT
ATOM      1  C   LIG    1       -1.709  -0.424   0.016  0.00  0.00    -0.080 A 
ATOM      2  C   LIG    1       -2.672   0.578   0.025  0.00  0.00    -0.020 A 
ATOM      3  C   LIG    1       -4.012   0.245   0.036  0.00  0.00    +0.030 A 
ATOM      4  C   LIG    1       -4.397  -1.083   0.039  0.00  0.00    +0.000 A 
ATOM      5  C   LIG    1       -3.441  -2.083   0.030  0.00  0.00    -0.050 A 
ATOM      6  C   LIG    1       -2.099  -1.758   0.013  0.00  0.00    +0.030 A 
ENDROOT
BRANCH   5   7
ATOM      7  C   LIG    1       -3.865  -3.529   0.034  0.00  0.00    -0.030 C 
ATOM      8  C   LIG    1       -3.306  -4.222   1.278  0.00  0.00    +0.040 C 
ATOM      9  C   LIG    1       -3.327  -4.221  -1.220  0.00  0.00    +0.040 C 
ATOM     10  C   LIG    1       -5.393  -3.613   0.046  0.00  0.00    +0.030 C 
ENDBRANCH   5   7
BRANCH   1  12
ATOM     11  C   LIG    1       -0.022   1.810   0.012  0.00  0.00    +0.130 C 
ATOM     12  S   LIG    1        0.002  -0.004   0.002  0.00  0.00    -0.120 S 
ENDBRANCH   1  12
TORSDOF 2
ENDMDL
MODEL      279
REMARK  Name = ZINC000002563392
REMARK                            x       y       z     vdW  Elec       q    Type
REMARK                         _______ _______ _______ _____ _____    ______ ____
ROOT
ATOM      1  C   LIG    1       -2.091  -0.264  -1.331  0.00  0.00    -0.020 C 
ATOM      2  C   LIG    1       -1.474  -1.191  -2.380  0.00  0.00    +0.010 C 
ENDROOT
BRANCH   1   3
ATOM      3  C   LIG    1       -1.419  -0.508   0.023  0.00  0.00    +0.010 C 
BRANCH   3   5
ATOM      4  C   LIG    1        0.157   1.404  -0.296  0.00  0.00    +0.010 C 
ATOM      5  C   LIG    1        0.054  -0.104  -0.059  0.00  0.00    -0.030 C 
ATOM      6  C   LIG    1        0.754  -0.463   1.253  0.00  0.00    +0.000 C 
ENDBRANCH   3   5
ENDBRANCH   1   3
BRANCH   1   7
ATOM      7  C   LIG    1       -3.589  -0.549  -1.215  0.00  0.00    +0.010 C 
BRANCH   7   8
ATOM      8  C   LIG    1       -4.283  -0.168  -2.525  0.00  0.00    -0.030 C 
ATOM      9  C   LIG    1       -4.190   1.346  -2.728  0.00  0.00    +0.010 C 
ATOM     10  C   LIG    1       -5.754  -0.585  -2.462  0.00  0.00    +0.000 C 
ENDBRANCH   7   8
ENDBRANCH   1   7
TORSDOF 4
ENDMDL
MODEL      280
REMARK  Name = ZINC000002015884
REMARK                            x       y       z     vdW  Elec       q    Type
REMARK                         _______ _______ _______ _____ _____    ______ ____
ROOT
ATOM      1  C   LIG    1       -1.709  -0.424   0.016  0.00  0.00    -0.080 A 
ATOM      2  C   LIG    1       -2.111  -1.777   0.019  0.00  0.00    -0.030 A 
ATOM      3  C   LIG    1       -1.168  -2.817   0.010  0.00  0.00    +0.030 A 
ATOM      4  C   LIG    1       -1.591  -4.111   0.013  0.00  0.00    +0.020 A 
ATOM      5  C   LIG    1       -2.950  -4.421   0.024  0.00  0.00    +0.020 A 
ATOM      6  C   LIG    1       -3.892  -3.439   0.033  0.00  0.00    +0.020 A 
ATOM      7  C   LIG    1       -3.492  -2.091   0.030  0.00  0.00    -0.040 A 
ATOM      8  C   LIG    1       -4.438  -1.051   0.040  0.00  0.00    +0.020 A 
ATOM      9  C   LIG    1       -4.022   0.246   0.037  0.00  0.00    +0.030 A 
ATOM     10  C   LIG    1       -2.669   0.567   0.031  0.00  0.00    +0.000 A 
ENDROOT
BRANCH   1  12
ATOM     11  C   LIG    1       -0.022   1.810   0.012  0.00  0.00    +0.140 C 
ATOM     12  S   LIG    1        0.002  -0.004   0.002  0.00  0.00    -0.100 S 
ENDBRANCH   1  12
TORSDOF 1
ENDMDL
MODEL      281
REMARK  Name = ZINC000002600013
REMARK                            x       y       z     vdW  Elec       q    Type
REMARK                         _______ _______ _______ _____ _____    ______ ____
ROOT
ATOM      1  C   LIG    1       -0.388  -2.358  -0.437  0.00  0.00    +0.020 C 
ENDROOT
BRANCH   1   2
ATOM      2  C   LIG    1       -1.675  -3.084  -0.836  0.00  0.00    -0.060 C 
ATOM      3  C   LIG    1       -2.065  -2.684  -2.260  0.00  0.00    +0.020 C 
ATOM      4  C   LIG    1       -2.798  -2.698   0.128  0.00  0.00    +0.020 C 
BRANCH   2   5
ATOM      5  C   LIG    1       -1.448  -4.596  -0.775  0.00  0.00    +0.010 C 
ATOM      6  C   LIG    1       -2.734  -5.321  -1.174  0.00  0.00    +0.010 C 
ENDBRANCH   2   5
ENDBRANCH   1   2
BRANCH   1   7
ATOM      7  C   LIG    1       -0.662  -0.857  -0.329  0.00  0.00    -0.030 C 
ATOM      8  C   LIG    1       -0.950  -0.289  -1.720  0.00  0.00    +0.010 C 
BRANCH   7  10
ATOM      9  C   LIG    1        0.244   1.323   0.488  0.00  0.00    +0.000 C 
ATOM     10  C   LIG    1        0.562  -0.157   0.264  0.00  0.00    +0.000 C 
ENDBRANCH   7  10
ENDBRANCH   1   7
TORSDOF 4
ENDMDL
MODEL      282
REMARK  Name = ZINC000053762988
REMARK                            x       y       z     vdW  Elec       q    Type
REMARK                         _______ _______ _______ _____ _____    ______ ____
ROOT
ATOM      1  C   LIG    1        1.476  -4.028  -2.532  0.00  0.00    +0.400 C 
ATOM      2  O   LIG    1        0.968  -4.646  -1.621  0.00  0.00    -0.440 OA
ENDROOT
BRANCH   1   3
ATOM      3  C   LIG    1        2.112  -4.749  -3.646  0.00  0.00    -0.140 A 
ATOM      4  C   LIG    1        2.704  -4.039  -4.696  0.00  0.00    +0.060 A 
ATOM      5  C   LIG    1        3.300  -4.721  -5.736  0.00  0.00    +0.040 A 
ATOM      6  C   LIG    1        3.313  -6.104  -5.745  0.00  0.00    +0.020 A 
ATOM      7  C   LIG    1        2.728  -6.816  -4.708  0.00  0.00    +0.090 A 
ATOM      8  F   LIG    1        2.746  -8.167  -4.724  0.00  0.00    -0.130 F 
ATOM      9  C   LIG    1        2.133  -6.147  -3.657  0.00  0.00    +0.050 A 
ENDBRANCH   1   3
BRANCH   1  10
ATOM     10  C   LIG    1        1.455  -2.521  -2.524  0.00  0.00    +0.030 C 
BRANCH  10  11
ATOM     11  C   LIG    1        0.739  -2.027  -1.265  0.00  0.00    +0.030 C 
BRANCH  11  12
ATOM     12  C   LIG    1        0.718  -0.497  -1.257  0.00  0.00    +0.000 C 
BRANCH  12  14
ATOM     13  C   LIG    1       -0.019   1.526   0.010  0.00  0.00    +0.000 C 
ATOM     14  C   LIG    1        0.002  -0.004   0.002  0.00  0.00    -0.010 C 
ENDBRANCH  12  14
ENDBRANCH  11  12
ENDBRANCH  10  11
ENDBRANCH   1  10
TORSDOF 5
ENDMDL
MODEL      283
REMARK  Name = ZINC000003204575
REMARK                            x       y       z     vdW  Elec       q    Type
REMARK                         _______ _______ _______ _____ _____    ______ ____
ROOT
ATOM      1  C   LIG    1        0.802  -1.824   1.306  0.00  0.00    +0.130 A 
ATOM      2  C   LIG    1        0.260  -2.672   0.351  0.00  0.00    -0.080 A 
ATOM      3  C   LIG    1        0.372  -4.041   0.502  0.00  0.00    +0.040 A 
ATOM      4  C   LIG    1        1.024  -4.566   1.603  0.00  0.00    -0.040 A 
ATOM      5  C   LIG    1        1.565  -3.722   2.555  0.00  0.00    +0.060 A 
ATOM      6  C   LIG    1        1.460  -2.353   2.407  0.00  0.00    -0.100 A 
ENDROOT
BRANCH   6   7
ATOM      7  C   LIG    1        2.051  -1.434   3.445  0.00  0.00    +0.080 C 
ATOM      8  C   LIG    1        3.526  -1.711   3.615  0.00  0.00    -0.030 C 
ATOM      9  C   LIG    1        3.854  -1.751   4.878  0.00  0.00    -0.050 C 
ATOM     10  C   LIG    1        2.652  -1.508   5.761  0.00  0.00    +0.050 C 
ATOM     11  C   LIG    1        1.432  -1.722   4.833  0.00  0.00    +0.020 C 
ENDBRANCH   6   7
BRANCH   1  12
ATOM     12  O   LIG    1        0.693  -0.477   1.160  0.00  0.00    -0.310 OA
BRANCH  12  14
ATOM     13  C   LIG    1       -0.019   1.526   0.010  0.00  0.00    +0.070 C 
ATOM     14  C   LIG    1        0.002  -0.004   0.002  0.00  0.00    +0.170 C 
ENDBRANCH  12  14
ENDBRANCH   1  12
TORSDOF 3
ENDMDL
MODEL      284
REMARK  Name = ZINC000003204576
REMARK                            x       y       z     vdW  Elec       q    Type
REMARK                         _______ _______ _______ _____ _____    ______ ____
ROOT
ATOM      1  C   LIG    1        0.802  -1.824   1.306  0.00  0.00    +0.130 A 
ATOM      2  C   LIG    1        0.260  -2.672   0.351  0.00  0.00    -0.080 A 
ATOM      3  C   LIG    1        0.372  -4.041   0.502  0.00  0.00    +0.040 A 
ATOM      4  C   LIG    1        1.024  -4.566   1.603  0.00  0.00    -0.040 A 
ATOM      5  C   LIG    1        1.565  -3.722   2.555  0.00  0.00    +0.060 A 
ATOM      6  C   LIG    1        1.460  -2.353   2.407  0.00  0.00    -0.100 A 
ENDROOT
BRANCH   6   7
ATOM      7  C   LIG    1        2.051  -1.434   3.445  0.00  0.00    +0.080 C 
ATOM      8  C   LIG    1        1.471  -1.738   4.807  0.00  0.00    -0.030 C 
ATOM      9  C   LIG    1        2.404  -1.770   5.719  0.00  0.00    -0.050 C 
ATOM     10  C   LIG    1        3.763  -1.493   5.117  0.00  0.00    +0.050 C 
ATOM     11  C   LIG    1        3.568  -1.694   3.594  0.00  0.00    +0.020 C 
ENDBRANCH   6   7
BRANCH   1  12
ATOM     12  O   LIG    1        0.693  -0.477   1.160  0.00  0.00    -0.310 OA
BRANCH  12  14
ATOM     13  C   LIG    1       -0.019   1.526   0.010  0.00  0.00    +0.070 C 
ATOM     14  C   LIG    1        0.002  -0.004   0.002  0.00  0.00    +0.170 C 
ENDBRANCH  12  14
ENDBRANCH   1  12
TORSDOF 3
ENDMDL
MODEL      285
REMARK  Name = ZINC000002242721
REMARK                            x       y       z     vdW  Elec       q    Type
REMARK                         _______ _______ _______ _____ _____    ______ ____
ROOT
ATOM      1  C   LIG    1       -0.000  -0.734  -1.278  0.00  0.00    -0.150 A 
ATOM      2  C   LIG    1       -0.014  -0.070  -2.414  0.00  0.00    +0.110 A 
ATOM      3  C   LIG    1       -0.016  -0.799  -3.693  0.00  0.00    +0.040 A 
ATOM      4  C   LIG    1       -0.003  -2.115  -3.700  0.00  0.00    -0.040 A 
ATOM      5  C   LIG    1        0.004  -3.387  -4.444  0.00  0.00    -0.070 A 
ATOM      6  C   LIG    1        0.002  -4.038  -5.587  0.00  0.00    +0.050 A 
ATOM      7  C   LIG    1        0.016  -5.511  -5.595  0.00  0.00    +0.030 A 
ATOM      8  C   LIG    1        0.032  -6.175  -4.459  0.00  0.00    +0.040 A 
ATOM      9  C   LIG    1        0.035  -5.446  -3.180  0.00  0.00    +0.050 A 
ATOM     10  C   LIG    1        0.021  -4.130  -3.172  0.00  0.00    -0.060 A 
ATOM     11  C   LIG    1        0.014  -2.858  -2.429  0.00  0.00    -0.070 A 
ATOM     12  C   LIG    1        0.020  -2.207  -1.286  0.00  0.00    +0.080 A 
ENDROOT
BRANCH   1  14
ATOM     13  C   LIG    1       -0.018   1.503   0.010  0.00  0.00    +0.080 C 
ATOM     14  C   LIG    1        0.002  -0.004   0.002  0.00  0.00    +0.400 C 
ATOM     15  O   LIG    1        0.020  -0.613   1.044  0.00  0.00    -0.450 OA
ENDBRANCH   1  14
TORSDOF 1
ENDMDL
MODEL      286
REMARK  Name = ZINC000054962205
REMARK                            x       y       z     vdW  Elec       q    Type
REMARK                         _______ _______ _______ _____ _____    ______ ____
ROOT
ATOM      1  C   LIG    1        1.492  -2.540   2.454  0.00  0.00    -0.080 A 
ATOM      2  C   LIG    1        2.858  -2.747   2.410  0.00  0.00    +0.000 A 
ATOM      3  C   LIG    1        3.517  -3.207   3.531  0.00  0.00    +0.000 A 
ATOM      4  C   LIG    1        2.820  -3.465   4.704  0.00  0.00    -0.080 A 
ATOM      5  C   LIG    1        3.601  -3.979   5.885  0.00  0.00    +0.060 C 
ATOM      6  C   LIG    1        2.803  -3.801   7.175  0.00  0.00    +0.020 C 
ATOM      7  C   LIG    1        1.405  -4.395   6.966  0.00  0.00    +0.020 C 
ATOM      8  C   LIG    1        0.642  -3.502   5.990  0.00  0.00    +0.070 C 
ATOM      9  C   LIG    1        1.460  -3.253   4.750  0.00  0.00    -0.070 A 
ATOM     10  C   LIG    1        0.799  -2.787   3.621  0.00  0.00    +0.000 A 
ENDROOT
BRANCH   1  11
ATOM     11  C   LIG    1        0.763  -2.041   1.233  0.00  0.00    +0.060 C 
BRANCH  11  12
ATOM     12  C   LIG    1        0.742  -0.511   1.242  0.00  0.00    +0.010 C 
BRANCH  12  14
ATOM     13  C   LIG    1       -0.019   1.526   0.010  0.00  0.00    +0.000 C 
ATOM     14  C   LIG    1        0.002  -0.004   0.002  0.00  0.00    -0.010 C 
ENDBRANCH  12  14
ENDBRANCH  11  12
ENDBRANCH   1  11
TORSDOF 3
ENDMDL
MODEL      287
REMARK  Name = ZINC000054962183
REMARK                            x       y       z     vdW  Elec       q    Type
REMARK                         _______ _______ _______ _____ _____    ______ ____
ROOT
ATOM      1  C   LIG    1       -1.416  -2.058  -0.121  0.00  0.00    -0.010 C 
ATOM      2  C   LIG    1       -2.851  -2.587  -0.110  0.00  0.00    +0.000 C 
ATOM      3  C   LIG    1       -2.833  -4.111  -0.244  0.00  0.00    +0.000 C 
ATOM      4  C   LIG    1       -2.156  -4.500  -1.560  0.00  0.00    +0.000 C 
ATOM      5  C   LIG    1       -0.721  -3.970  -1.571  0.00  0.00    +0.000 C 
ATOM      6  C   LIG    1       -0.739  -2.446  -1.437  0.00  0.00    +0.000 C 
ENDROOT
BRANCH   1   7
ATOM      7  C   LIG    1       -1.433  -0.534   0.013  0.00  0.00    -0.020 C 
ATOM      8  C   LIG    1       -2.110  -0.145   1.329  0.00  0.00    +0.020 C 
BRANCH   7  10
ATOM      9  C   LIG    1       -0.019   1.526   0.010  0.00  0.00    +0.000 C 
ATOM     10  C   LIG    1        0.002  -0.004   0.002  0.00  0.00    +0.000 C 
ENDBRANCH   7  10
ENDBRANCH   1   7
TORSDOF 2
ENDMDL
MODEL      288
REMARK  Name = ZINC000054962177
REMARK                            x       y       z     vdW  Elec       q    Type
REMARK                         _______ _______ _______ _____ _____    ______ ____
ROOT
ATOM      1  C   LIG    1        0.739  -2.004  -1.265  0.00  0.00    -0.080 A 
ATOM      2  C   LIG    1        0.154  -2.709  -0.229  0.00  0.00    +0.010 A 
ATOM      3  C   LIG    1        0.173  -4.091  -0.237  0.00  0.00    +0.000 A 
ATOM      4  C   LIG    1        0.776  -4.769  -1.280  0.00  0.00    -0.090 A 
ATOM      5  C   LIG    1        1.359  -4.064  -2.317  0.00  0.00    +0.000 A 
ATOM      6  C   LIG    1        0.797  -6.276  -1.288  0.00  0.00    +0.090 C 
ATOM      7  C   LIG    1        1.337  -2.682  -2.311  0.00  0.00    +0.010 A 
ENDROOT
BRANCH   1   8
ATOM      8  C   LIG    1        0.718  -0.497  -1.257  0.00  0.00    -0.030 C 
ATOM      9  C   LIG    1        2.154   0.032  -1.268  0.00  0.00    +0.040 C 
ATOM     10  C   LIG    1       -0.022   0.009  -2.496  0.00  0.00    +0.040 C 
BRANCH   8  12
ATOM     11  C   LIG    1       -0.019   1.526   0.010  0.00  0.00    +0.010 C 
ATOM     12  C   LIG    1        0.002  -0.004   0.002  0.00  0.00    +0.000 C 
ENDBRANCH   8  12
ENDBRANCH   1   8
TORSDOF 2
ENDMDL
MODEL      289
REMARK  Name = ZINC000059114639
REMARK                            x       y       z     vdW  Elec       q    Type
REMARK                         _______ _______ _______ _____ _____    ______ ____
ROOT
ATOM      1  C   LIG    1       -0.018   1.503   0.010  0.00  0.00    +0.090 C 
ATOM      2  C   LIG    1        0.002  -0.004   0.002  0.00  0.00    -0.080 A 
ATOM      3  C   LIG    1        0.006  -0.684  -1.214  0.00  0.00    +0.020 A 
ATOM      4  C   LIG    1        0.024  -2.044  -1.257  0.00  0.00    +0.030 A 
ATOM      5  C   LIG    1        0.041  -2.777  -0.059  0.00  0.00    -0.060 A 
ATOM      6  C   LIG    1        0.061  -4.183  -0.063  0.00  0.00    +0.050 A 
ATOM      7  C   LIG    1        0.076  -4.860   1.117  0.00  0.00    +0.010 A 
ATOM      8  C   LIG    1        0.073  -4.180   2.335  0.00  0.00    -0.030 A 
ATOM      9  C   LIG    1        0.053  -2.819   2.378  0.00  0.00    +0.040 A 
ATOM     10 CL   LIG    1        0.093  -5.082   3.818  0.00  0.00    -0.070 Cl
ATOM     11  C   LIG    1        0.037  -2.086   1.179  0.00  0.00    -0.040 A 
ATOM     12  C   LIG    1        0.022  -0.681   1.183  0.00  0.00    +0.020 A 
ENDROOT
TORSDOF 0
ENDMDL
MODEL      290
REMARK  Name = ZINC000005394488
REMARK                            x       y       z     vdW  Elec       q    Type
REMARK                         _______ _______ _______ _____ _____    ______ ____
ROOT
ATOM      1  N   LIG    1        0.998  -3.765  -0.025  0.00  0.00    -0.650 N 
ATOM      2  H   LIG    1        0.396  -4.523   0.040  0.00  0.00    +0.420 HD
ENDROOT
BRANCH   1   7
ATOM      3  C   LIG    1       -0.043   1.496  -0.183  0.00  0.00    +0.120 C 
ATOM      4  C   LIG    1       -0.008  -0.007  -0.077  0.00  0.00    -0.220 A 
ATOM      5  C   LIG    1       -1.052  -0.778   0.225  0.00  0.00    +0.040 A 
ATOM      6  C   LIG    1       -0.783  -2.137   0.266  0.00  0.00    -0.080 A 
ATOM      7  C   LIG    1        0.488  -2.466  -0.005  0.00  0.00    +0.090 A 
ATOM      8  S   LIG    1        1.414  -1.008  -0.339  0.00  0.00    +0.120 S 
ENDBRANCH   1   7
BRANCH   1   9
ATOM      9  C   LIG    1        2.374  -3.974  -0.138  0.00  0.00    +0.160 A 
ATOM     10  C   LIG    1        3.264  -3.091   0.459  0.00  0.00    -0.040 A 
ATOM     11  C   LIG    1        4.624  -3.301   0.346  0.00  0.00    +0.050 A 
ATOM     12  C   LIG    1        5.101  -4.389  -0.362  0.00  0.00    -0.020 A 
ATOM     13  C   LIG    1        4.218  -5.271  -0.958  0.00  0.00    +0.040 A 
ATOM     14  C   LIG    1        2.856  -5.070  -0.844  0.00  0.00    -0.030 A 
ENDBRANCH   1   9
TORSDOF 2
ENDMDL
MODEL      291
REMARK  Name = ZINC000059510995
REMARK                            x       y       z     vdW  Elec       q    Type
REMARK                         _______ _______ _______ _____ _____    ______ ____
ROOT
ATOM      1  C   LIG    1        0.054  -2.844   2.489  0.00  0.00    +0.120 C 
ENDROOT
BRANCH   1   7
ATOM      2  C   LIG    1       -0.018   1.503   0.010  0.00  0.00    +0.090 C 
ATOM      3  C   LIG    1        0.002  -0.004   0.002  0.00  0.00    -0.080 A 
ATOM      4  C   LIG    1        0.006  -0.689  -1.199  0.00  0.00    -0.010 A 
ATOM      5  C   LIG    1        0.025  -2.071  -1.206  0.00  0.00    +0.010 A 
ATOM      6  C   LIG    1        0.040  -2.768  -0.013  0.00  0.00    +0.000 A 
ATOM      7  C   LIG    1        0.037  -2.084   1.188  0.00  0.00    -0.070 A 
ATOM      8  C   LIG    1        0.023  -0.702   1.195  0.00  0.00    +0.000 A 
ENDBRANCH   1   7
BRANCH   1   9
ATOM      9  C   LIG    1        1.480  -3.079   2.915  0.00  0.00    -0.070 A 
ATOM     10  C   LIG    1        2.146  -4.218   2.502  0.00  0.00    +0.000 A 
ATOM     11  C   LIG    1        3.454  -4.434   2.893  0.00  0.00    +0.010 A 
ATOM     12  C   LIG    1        4.096  -3.511   3.697  0.00  0.00    -0.010 A 
ATOM     13  C   LIG    1        3.431  -2.372   4.109  0.00  0.00    -0.080 A 
ATOM     14  C   LIG    1        4.130  -1.366   4.987  0.00  0.00    +0.090 C 
ATOM     15  C   LIG    1        2.124  -2.154   3.715  0.00  0.00    +0.000 A 
ENDBRANCH   1   9
TORSDOF 2
ENDMDL
MODEL      292
REMARK  Name = ZINC000059671692
REMARK                            x       y       z     vdW  Elec       q    Type
REMARK                         _______ _______ _______ _____ _____    ______ ____
ROOT
ATOM      1  C   LIG    1       -0.016   1.503   0.009  0.00  0.00    +0.090 C 
ATOM      2  C   LIG    1        0.004  -0.004   0.001  0.00  0.00    -0.090 A 
ATOM      3  C   LIG    1        1.069  -0.684   0.561  0.00  0.00    +0.000 A 
ATOM      4  C   LIG    1        1.087  -2.067   0.554  0.00  0.00    +0.010 A 
ATOM      5  C   LIG    1        0.040  -2.768  -0.013  0.00  0.00    -0.070 A 
ATOM      6  C   LIG    1       -1.026  -2.088  -0.572  0.00  0.00    +0.010 A 
ATOM      7  C   LIG    1       -1.046  -0.706  -0.562  0.00  0.00    +0.000 A 
ENDROOT
BRANCH   5   8
ATOM      8  C   LIG    1        0.060  -4.275  -0.021  0.00  0.00    -0.030 C 
ATOM      9  C   LIG    1        1.349  -4.810  -0.687  0.00  0.00    +0.060 C 
ATOM     10  C   LIG    1        1.720  -6.032   0.120  0.00  0.00    -0.050 C 
ATOM     11  C   LIG    1        1.094  -6.046   1.266  0.00  0.00    -0.050 C 
ATOM     12  C   LIG    1       -1.187  -4.834  -0.710  0.00  0.00    +0.040 C 
ATOM     13  C   LIG    1        0.201  -4.837   1.413  0.00  0.00    +0.060 C 
ENDBRANCH   5   8
TORSDOF 1
ENDMDL
MODEL      293
REMARK  Name = ZINC000002510717
REMARK                            x       y       z     vdW  Elec       q    Type
REMARK                         _______ _______ _______ _____ _____    ______ ____
ROOT
ATOM      1  C   LIG    1        0.718  -0.497  -1.257  0.00  0.00    +0.000 C 
ATOM      2  C   LIG    1       -0.022   0.009  -2.496  0.00  0.00    +0.040 C 
ATOM      3  C   LIG    1        0.694  -0.484  -3.755  0.00  0.00    +0.020 C 
ATOM      4  C   LIG    1        2.130   0.045  -3.766  0.00  0.00    +0.290 C 
ATOM      5  C   LIG    1        2.870  -0.461  -2.526  0.00  0.00    +0.020 C 
ATOM      6  F   LIG    1        2.111   1.444  -3.758  0.00  0.00    -0.200 F 
ATOM      7  F   LIG    1        2.785  -0.406  -4.917  0.00  0.00    -0.200 F 
ATOM      8  C   LIG    1        2.154   0.032  -1.268  0.00  0.00    +0.040 C 
ENDROOT
BRANCH   1  10
ATOM      9  C   LIG    1       -0.019   1.526   0.010  0.00  0.00    +0.020 C 
ATOM     10  C   LIG    1        0.002  -0.004   0.002  0.00  0.00    -0.060 C 
ATOM     11  C   LIG    1       -1.433  -0.534   0.013  0.00  0.00    +0.020 C 
ATOM     12  C   LIG    1        0.742  -0.511   1.242  0.00  0.00    +0.020 C 
ENDBRANCH   1  10
TORSDOF 1
ENDMDL
MODEL      294
REMARK  Name = ZINC000059975230
REMARK                            x       y       z     vdW  Elec       q    Type
REMARK                         _______ _______ _______ _____ _____    ______ ____
ROOT
ATOM      1  C   LIG    1       -0.018   1.503   0.010  0.00  0.00    +0.090 C 
ATOM      2  C   LIG    1        0.002  -0.004   0.002  0.00  0.00    -0.080 A 
ATOM      3  C   LIG    1        0.006  -0.686  -1.201  0.00  0.00    +0.010 A 
ATOM      4  C   LIG    1        0.024  -2.067  -1.215  0.00  0.00    +0.020 A 
ATOM      5  C   LIG    1        0.039  -2.772  -0.013  0.00  0.00    -0.050 A 
ATOM      6  C   LIG    1        0.036  -2.080   1.196  0.00  0.00    +0.020 A 
ATOM      7  C   LIG    1        0.023  -0.700   1.198  0.00  0.00    +0.010 A 
ENDROOT
BRANCH   5   8
ATOM      8  C   LIG    1        0.059  -4.256  -0.021  0.00  0.00    -0.050 A 
ATOM      9  C   LIG    1        0.069  -4.948  -1.231  0.00  0.00    +0.060 A 
ATOM     10  C   LIG    1        0.088  -6.327  -1.234  0.00  0.00    -0.010 A 
ATOM     11  C   LIG    1        0.098  -7.025  -0.037  0.00  0.00    +0.100 A 
ATOM     12  C   LIG    1        0.088  -6.341   1.168  0.00  0.00    -0.010 A 
ATOM     13  F   LIG    1        0.117  -8.376  -0.044  0.00  0.00    -0.140 F 
ATOM     14  C   LIG    1        0.074  -4.961   1.180  0.00  0.00    +0.060 A 
ENDBRANCH   5   8
TORSDOF 1
ENDMDL
MODEL      295
REMARK  Name = ZINC000060009175
REMARK                            x       y       z     vdW  Elec       q    Type
REMARK                         _______ _______ _______ _____ _____    ______ ____
ROOT
ATOM      1  C   LIG    1       -0.018   1.503   0.010  0.00  0.00    +0.100 C 
ATOM      2  C   LIG    1        0.002  -0.004   0.002  0.00  0.00    -0.060 A 
ATOM      3  C   LIG    1        0.006  -0.703  -1.217  0.00  0.00    -0.050 A 
ATOM      4  C   LIG    1       -0.009  -0.025  -2.447  0.00  0.00    +0.020 A 
ATOM      5  C   LIG    1       -0.004  -0.735  -3.608  0.00  0.00    +0.020 A 
ATOM      6  C   LIG    1        0.015  -2.129  -3.597  0.00  0.00    +0.020 A 
ATOM      7  C   LIG    1        0.029  -2.820  -2.425  0.00  0.00    +0.030 A 
ATOM      8  C   LIG    1        0.026  -2.121  -1.205  0.00  0.00    -0.040 A 
ATOM      9  C   LIG    1        0.041  -2.800   0.025  0.00  0.00    +0.040 A 
ATOM     10  C   LIG    1        0.037  -2.088   1.187  0.00  0.00    -0.020 A 
ATOM     11 CL   LIG    1        0.057  -2.931   2.705  0.00  0.00    -0.070 Cl
ATOM     12  C   LIG    1        0.023  -0.694   1.175  0.00  0.00    +0.010 A 
ENDROOT
TORSDOF 0
ENDMDL
MODEL      296
REMARK  Name = ZINC000002039984
REMARK                            x       y       z     vdW  Elec       q    Type
REMARK                         _______ _______ _______ _____ _____    ______ ____
ROOT
ATOM      1  C   LIG    1        0.718  -0.497  -1.257  0.00  0.00    +0.010 C 
ENDROOT
BRANCH   1   3
ATOM      2  C   LIG    1       -0.019   1.526   0.010  0.00  0.00    +0.020 C 
ATOM      3  C   LIG    1        0.002  -0.004   0.002  0.00  0.00    -0.070 C 
ATOM      4  C   LIG    1       -1.433  -0.534   0.013  0.00  0.00    +0.010 C 
ATOM      5  C   LIG    1        0.742  -0.511   1.242  0.00  0.00    +0.020 C 
ENDBRANCH   1   3
BRANCH   1   6
ATOM      6  C   LIG    1        2.154   0.032  -1.268  0.00  0.00    +0.010 C 
BRANCH   6   7
ATOM      7  C   LIG    1        2.870  -0.461  -2.526  0.00  0.00    -0.070 C 
ATOM      8  C   LIG    1        2.890  -1.991  -2.535  0.00  0.00    +0.020 C 
ATOM      9  C   LIG    1        4.305   0.068  -2.537  0.00  0.00    +0.010 C 
ATOM     10  C   LIG    1        2.130   0.045  -3.766  0.00  0.00    +0.020 C 
ENDBRANCH   6   7
ENDBRANCH   1   6
TORSDOF 3
ENDMDL
MODEL      297
REMARK  Name = ZINC000195796572
REMARK                            x       y       z     vdW  Elec       q    Type
REMARK                         _______ _______ _______ _____ _____    ______ ____
ROOT
ATOM      1  C   LIG    1       -0.013   0.918  -2.102  0.00  0.00    -0.190 C 
ATOM      2 SI   LIG    1        0.010  -0.196  -0.609  0.00  0.00    +0.650 Si
ENDROOT
BRANCH   2   3
ATOM      3  C   LIG    1       -1.647  -0.154   0.244  0.00  0.00    -0.310 C 
ATOM      4  C   LIG    1       -1.797   1.166   1.002  0.00  0.00    +0.030 C 
ATOM      5  C   LIG    1       -1.743  -1.321   1.228  0.00  0.00    +0.030 C 
ATOM      6  C   LIG    1       -2.760  -0.273  -0.799  0.00  0.00    +0.030 C 
ENDBRANCH   2   3
BRANCH   2   7
ATOM      7  C   LIG    1        1.347   0.346   0.570  0.00  0.00    -0.310 C 
ATOM      8  C   LIG    1        2.717   0.056  -0.045  0.00  0.00    +0.030 C 
ATOM      9  C   LIG    1        1.206  -0.420   1.887  0.00  0.00    +0.030 C 
ATOM     10  C   LIG    1        1.214   1.847   0.836  0.00  0.00    +0.020 C 
ENDBRANCH   2   7
TORSDOF 2
ENDMDL
MODEL      298
REMARK  Name = ZINC000008654897
REMARK                            x       y       z     vdW  Elec       q    Type
REMARK                         _______ _______ _______ _____ _____    ______ ____
ROOT
ATOM      1  C   LIG    1        0.898  -0.510  -3.397  0.00  0.00    +0.050 C 
ATOM      2  C   LIG    1        0.473  -1.938  -3.749  0.00  0.00    +0.040 C 
ENDROOT
BRANCH   1   3
ATOM      3  C   LIG    1        0.963   0.319  -4.653  0.00  0.00    +0.140 A 
ATOM      4  C   LIG    1        0.054   0.093  -5.669  0.00  0.00    -0.030 A 
ATOM      5  C   LIG    1        0.122   0.862  -6.821  0.00  0.00    +0.060 A 
ATOM      6  C   LIG    1        1.107   1.834  -6.908  0.00  0.00    -0.050 A 
ATOM      7  C   LIG    1        1.982   2.002  -5.851  0.00  0.00    +0.260 A 
ATOM      8  N   LIG    1        1.884   1.256  -4.769  0.00  0.00    -0.480 NA
ENDBRANCH   1   3
BRANCH   1   9
ATOM      9  C   LIG    1       -0.122   0.102  -2.434  0.00  0.00    +0.060 C 
BRANCH   9  12
ATOM     10  C   LIG    1        0.172   1.492   0.002  0.00  0.00    +0.070 C 
ATOM     11  C   LIG    1        0.095  -0.013  -0.005  0.00  0.00    -0.130 C 
ATOM     12  C   LIG    1       -0.099  -0.654  -1.131  0.00  0.00    -0.060 C 
ATOM     13  C   LIG    1        0.241  -0.781   1.284  0.00  0.00    +0.070 C 
ENDBRANCH   9  12
ENDBRANCH   1   9
TORSDOF 3
ENDMDL
MODEL      299
REMARK  Name = ZINC000008654899
REMARK                            x       y       z     vdW  Elec       q    Type
REMARK                         _______ _______ _______ _____ _____    ______ ____
ROOT
ATOM      1  C   LIG    1       -3.299  -0.406  -1.150  0.00  0.00    +0.030 C 
ATOM      2  C   LIG    1       -3.658  -1.881  -0.965  0.00  0.00    +0.030 C 
ENDROOT
BRANCH   1   3
ATOM      3  C   LIG    1       -4.561   0.416  -1.206  0.00  0.00    -0.030 A 
ATOM      4  C   LIG    1       -5.445   0.433  -0.138  0.00  0.00    -0.040 A 
ATOM      5  C   LIG    1       -6.592   1.198  -0.226  0.00  0.00    +0.260 A 
ATOM      6  N   LIG    1       -6.851   1.905  -1.308  0.00  0.00    -0.490 NA
ATOM      7  C   LIG    1       -6.034   1.912  -2.343  0.00  0.00    +0.260 A 
ATOM      8  C   LIG    1       -4.864   1.176  -2.325  0.00  0.00    -0.040 A 
ENDBRANCH   1   3
BRANCH   1   9
ATOM      9  C   LIG    1       -2.438   0.061   0.026  0.00  0.00    +0.060 C 
BRANCH   9  12
ATOM     10  C   LIG    1       -0.018   1.503   0.010  0.00  0.00    +0.080 C 
ATOM     11  C   LIG    1        0.002  -0.004   0.002  0.00  0.00    -0.130 C 
ATOM     12  C   LIG    1       -1.123  -0.674   0.009  0.00  0.00    -0.060 C 
ATOM     13  C   LIG    1        1.317  -0.740  -0.015  0.00  0.00    +0.070 C 
ENDBRANCH   9  12
ENDBRANCH   1   9
TORSDOF 3
ENDMDL
MODEL      300
REMARK  Name = ZINC000196653605
REMARK                            x       y       z     vdW  Elec       q    Type
REMARK                         _______ _______ _______ _____ _____    ______ ____
ROOT
ATOM      1  C   LIG    1       -0.019   1.526   0.010  0.00  0.00    +0.030 C 
ATOM      2  C   LIG    1        0.002  -0.004   0.002  0.00  0.00    +0.040 C 
ATOM      3  C   LIG    1        0.708  -0.492  -1.263  0.00  0.00    +0.030 C 
ATOM      4  C   LIG    1        0.910  -2.010  -1.164  0.00  0.00    +0.170 C 
ATOM      5  N   LIG    1        1.797  -2.271  -0.023  0.00  0.00    -0.740 N 
ATOM      6  H   LIG    1        2.529  -2.903  -0.102  0.00  0.00    +0.400 HD
ATOM      7  C   LIG    1        1.570  -1.593   1.181  0.00  0.00    +0.210 A 
ATOM      8  C   LIG    1        2.209  -2.030   2.335  0.00  0.00    -0.030 A 
ATOM      9  C   LIG    1        2.003  -1.372   3.532  0.00  0.00    +0.020 A 
ATOM     10  C   LIG    1        1.157  -0.277   3.580  0.00  0.00    +0.040 A 
ATOM     11  C   LIG    1        0.519   0.158   2.433  0.00  0.00    +0.020 A 
ATOM     12  F   LIG    1        0.956   0.368   4.750  0.00  0.00    -0.150 F 
ATOM     13  C   LIG    1        1.551  -2.532  -2.451  0.00  0.00    +0.040 C 
ATOM     14  C   LIG    1       -0.438  -2.698  -0.941  0.00  0.00    +0.030 C 
ATOM     15  C   LIG    1        0.721  -0.498   1.230  0.00  0.00    -0.120 A 
ENDROOT
TORSDOF 0
ENDMDL
MODEL      301
REMARK  Name = ZINC000201588779
REMARK                            x       y       z     vdW  Elec       q    Type
REMARK                         _______ _______ _______ _____ _____    ______ ____
ROOT
ATOM      1  C   LIG    1       -0.001   1.503   0.009  0.00  0.00    +0.130 C 
ATOM      2  C   LIG    1        0.010  -0.004   0.001  0.00  0.00    +0.120 A 
ATOM      3  N   LIG    1       -0.088  -0.643  -1.157  0.00  0.00    -0.470 NA
ATOM      4  C   LIG    1       -0.085  -1.954  -1.248  0.00  0.00    +0.210 A 
ATOM      5  C   LIG    1        0.026  -2.735  -0.085  0.00  0.00    -0.100 A 
ATOM      6  C   LIG    1        0.034  -4.138  -0.128  0.00  0.00    +0.050 A 
ATOM      7  C   LIG    1        0.144  -4.844   1.032  0.00  0.00    +0.020 A 
ATOM      8  C   LIG    1        0.247  -4.197   2.261  0.00  0.00    +0.040 A 
ATOM      9  C   LIG    1        0.242  -2.837   2.341  0.00  0.00    +0.030 A 
ATOM     10  C   LIG    1        0.131  -2.077   1.168  0.00  0.00    -0.010 A 
ATOM     11 CL   LIG    1       -0.216  -2.718  -2.801  0.00  0.00    -0.020 Cl
ATOM     12  C   LIG    1        0.126  -0.670   1.183  0.00  0.00    -0.120 A 
ATOM     13  C   LIG    1        0.241   0.085   2.482  0.00  0.00    +0.120 C 
ENDROOT
TORSDOF 0
ENDMDL
MODEL      302
REMARK  Name = ZINC000013162893
REMARK                            x       y       z     vdW  Elec       q    Type
REMARK                         _______ _______ _______ _____ _____    ______ ____
ROOT
ATOM      1  C   LIG    1       -2.851  -2.587  -0.110  0.00  0.00    +0.020 C 
ATOM      2  C   LIG    1       -3.487  -2.308   1.253  0.00  0.00    +0.040 C 
ENDROOT
BRANCH   1   3
ATOM      3  C   LIG    1       -2.840  -4.072  -0.365  0.00  0.00    -0.030 A 
ATOM      4  C   LIG    1       -2.175  -4.935   0.492  0.00  0.00    -0.040 A 
ATOM      5  C   LIG    1       -2.187  -6.291   0.226  0.00  0.00    +0.260 A 
ATOM      6  N   LIG    1       -2.821  -6.766  -0.828  0.00  0.00    -0.490 NA
ATOM      7  C   LIG    1       -3.464  -5.976  -1.664  0.00  0.00    +0.260 A 
ATOM      8  C   LIG    1       -3.501  -4.610  -1.459  0.00  0.00    -0.040 A 
ENDBRANCH   1   3
BRANCH   1   9
ATOM      9  C   LIG    1       -1.416  -2.058  -0.121  0.00  0.00    +0.020 C 
BRANCH   9  10
ATOM     10  C   LIG    1       -1.433  -0.534   0.013  0.00  0.00    +0.010 C 
BRANCH  10  12
ATOM     11  C   LIG    1       -0.019   1.526   0.010  0.00  0.00    +0.000 C 
ATOM     12  C   LIG    1        0.002  -0.004   0.002  0.00  0.00    -0.030 C 
ATOM     13  C   LIG    1        0.742  -0.511   1.242  0.00  0.00    +0.010 C 
ENDBRANCH  10  12
ENDBRANCH   9  10
ENDBRANCH   1   9
TORSDOF 4
ENDMDL
MODEL      303
REMARK  Name = ZINC000013162905
REMARK                            x       y       z     vdW  Elec       q    Type
REMARK                         _______ _______ _______ _____ _____    ______ ____
ROOT
ATOM      1  C   LIG    1       -3.299  -0.406  -1.150  0.00  0.00    +0.030 C 
ATOM      2  C   LIG    1       -2.627  -0.004  -2.465  0.00  0.00    +0.040 C 
ENDROOT
BRANCH   1   3
ATOM      3  C   LIG    1       -4.659   0.238  -1.064  0.00  0.00    -0.030 A 
ATOM      4  C   LIG    1       -4.795   1.617  -1.096  0.00  0.00    -0.040 A 
ATOM      5  C   LIG    1       -6.058   2.172  -1.015  0.00  0.00    +0.260 A 
ATOM      6  N   LIG    1       -7.126   1.405  -0.908  0.00  0.00    -0.490 NA
ATOM      7  C   LIG    1       -7.034   0.090  -0.875  0.00  0.00    +0.260 A 
ATOM      8  C   LIG    1       -5.804  -0.536  -0.958  0.00  0.00    -0.040 A 
ENDBRANCH   1   3
BRANCH   1   9
ATOM      9  C   LIG    1       -2.438   0.061   0.026  0.00  0.00    +0.050 C 
BRANCH   9  12
ATOM     10  C   LIG    1       -0.018   1.503   0.010  0.00  0.00    +0.080 C 
ATOM     11  C   LIG    1        0.002  -0.004   0.002  0.00  0.00    -0.130 C 
ATOM     12  C   LIG    1       -1.123  -0.674   0.009  0.00  0.00    -0.060 C 
ATOM     13  C   LIG    1        1.317  -0.740  -0.015  0.00  0.00    +0.070 C 
ENDBRANCH   9  12
ENDBRANCH   1   9
TORSDOF 3
ENDMDL
MODEL      304
REMARK  Name = ZINC000013162906
REMARK                            x       y       z     vdW  Elec       q    Type
REMARK                         _______ _______ _______ _____ _____    ______ ____
ROOT
ATOM      1  C   LIG    1        0.898  -0.510  -3.397  0.00  0.00    +0.050 C 
ATOM      2  C   LIG    1        2.309  -0.313  -2.839  0.00  0.00    +0.040 C 
ENDROOT
BRANCH   1   3
ATOM      3  C   LIG    1        0.789   0.165  -4.740  0.00  0.00    +0.140 A 
ATOM      4  C   LIG    1        1.479   1.340  -4.971  0.00  0.00    -0.030 A 
ATOM      5  C   LIG    1        1.373   1.954  -6.210  0.00  0.00    +0.060 A 
ATOM      6  C   LIG    1        0.574   1.359  -7.174  0.00  0.00    -0.050 A 
ATOM      7  C   LIG    1       -0.086   0.183  -6.870  0.00  0.00    +0.260 A 
ATOM      8  N   LIG    1        0.042  -0.375  -5.683  0.00  0.00    -0.480 NA
ENDBRANCH   1   3
BRANCH   1   9
ATOM      9  C   LIG    1       -0.122   0.102  -2.434  0.00  0.00    +0.060 C 
BRANCH   9  12
ATOM     10  C   LIG    1        0.142   1.494   0.004  0.00  0.00    +0.070 C 
ATOM     11  C   LIG    1        0.081  -0.011  -0.004  0.00  0.00    -0.130 C 
ATOM     12  C   LIG    1       -0.099  -0.654  -1.131  0.00  0.00    -0.050 C 
ATOM     13  C   LIG    1        0.228  -0.778   1.286  0.00  0.00    +0.070 C 
ENDBRANCH   9  12
ENDBRANCH   1   9
TORSDOF 3
ENDMDL
MODEL      305
REMARK  Name = ZINC000001697890
REMARK                            x       y       z     vdW  Elec       q    Type
REMARK                         _______ _______ _______ _____ _____    ______ ____
ROOT
ATOM      1  O   LIG    1        0.002  -0.004   0.002  0.00  0.00    -0.297 OA
ATOM      2  C   LIG    1       -0.014   1.203   0.009  0.00  0.00    +0.133 C 
ATOM      3  C   LIG    1       -1.323   1.961   0.032  0.00  0.00    +0.074 C 
ATOM      4  C   LIG    1       -1.274   2.984   1.171  0.00  0.00    +0.011 C 
ATOM      5  C   LIG    1       -0.036   3.868   1.008  0.00  0.00    -0.010 C 
ATOM      6  C   LIG    1        1.229   3.018   1.136  0.00  0.00    +0.011 C 
ATOM      7  C   LIG    1        1.274   1.997   0.001  0.00  0.00    +0.074 C 
ENDROOT
BRANCH   5   8
ATOM      8  C   LIG    1       -0.036   4.948   2.091  0.00  0.00    +0.007 C 
BRANCH   8   9
ATOM      9  C   LIG    1        1.132   5.908   1.855  0.00  0.00    -0.011 C 
ATOM     10  C   LIG    1        0.918   6.656   0.538  0.00  0.00    +0.003 C 
ATOM     11  C   LIG    1        2.086   7.616   0.301  0.00  0.00    +0.000 C 
ATOM     12  C   LIG    1        2.162   8.621   1.452  0.00  0.00    +0.000 C 
ATOM     13  C   LIG    1        2.376   7.872   2.769  0.00  0.00    +0.000 C 
ATOM     14  C   LIG    1        1.208   6.912   3.006  0.00  0.00    +0.003 C 
ENDBRANCH   8   9
ENDBRANCH   5   8
TORSDOF 2
ENDMDL
MODEL      306
REMARK  Name = ZINC000062701906
REMARK                            x       y       z     vdW  Elec       q    Type
REMARK                         _______ _______ _______ _____ _____    ______ ____
ROOT
ATOM      1  C   LIG    1       -0.018   1.503   0.010  0.00  0.00    +0.090 C 
ATOM      2  C   LIG    1        0.002  -0.004   0.002  0.00  0.00    -0.070 A 
ATOM      3  C   LIG    1        0.006  -0.686  -1.202  0.00  0.00    +0.010 A 
ATOM      4  C   LIG    1        0.024  -2.065  -1.220  0.00  0.00    +0.040 A 
ATOM      5  C   LIG    1        0.040  -2.776  -0.021  0.00  0.00    -0.070 A 
ATOM      6  C   LIG    1        0.037  -2.083   1.196  0.00  0.00    +0.120 A 
ATOM      7  C   LIG    1        0.023  -0.698   1.198  0.00  0.00    -0.110 A 
ATOM      8  C   LIG    1        0.020   0.053   2.504  0.00  0.00    +0.090 C 
ENDROOT
BRANCH   5   9
ATOM      9  C   LIG    1        0.061  -4.254  -0.033  0.00  0.00    -0.090 C 
ATOM     10  C   LIG    1        1.122  -4.992   0.243  0.00  0.00    -0.040 C 
ATOM     11  C   LIG    1        0.795  -6.463   0.137  0.00  0.00    +0.050 C 
ATOM     12  C   LIG    1       -0.749  -6.528   0.163  0.00  0.00    +0.020 C 
ATOM     13  C   LIG    1       -1.131  -5.125  -0.357  0.00  0.00    +0.050 C 
ENDBRANCH   5   9
BRANCH   6  14
ATOM     14  O   LIG    1        0.052  -2.766   2.370  0.00  0.00    -0.490 OA
ATOM     15  H   LIG    1        0.940  -2.951   2.705  0.00  0.00    +0.390 HD
ENDBRANCH   6  14
TORSDOF 2
ENDMDL
MODEL      307
REMARK  Name = ZINC000062701904
REMARK                            x       y       z     vdW  Elec       q    Type
REMARK                         _______ _______ _______ _____ _____    ______ ____
ROOT
ATOM      1  C   LIG    1       -1.412  -0.526   0.013  0.00  0.00    -0.090 A 
ATOM      2  C   LIG    1       -2.049  -0.765   1.218  0.00  0.00    +0.030 A 
ATOM      3  C   LIG    1       -3.345  -1.244   1.239  0.00  0.00    -0.010 A 
ATOM      4  C   LIG    1       -4.016  -1.486   0.051  0.00  0.00    +0.110 A 
ATOM      5  C   LIG    1       -3.374  -1.245  -1.170  0.00  0.00    -0.060 A 
ATOM      6  C   LIG    1       -2.068  -0.757  -1.179  0.00  0.00    +0.040 A 
ENDROOT
BRANCH   5   7
ATOM      7  C   LIG    1       -4.080  -1.500  -2.442  0.00  0.00    -0.100 C 
ATOM      8  C   LIG    1       -3.852  -2.535  -3.233  0.00  0.00    -0.030 C 
ATOM      9  C   LIG    1       -4.747  -2.489  -4.450  0.00  0.00    +0.050 C 
ATOM     10  C   LIG    1       -5.864  -1.487  -4.081  0.00  0.00    +0.020 C 
ATOM     11  C   LIG    1       -5.166  -0.617  -3.013  0.00  0.00    +0.060 C 
ENDBRANCH   5   7
BRANCH   1  13
ATOM     12  C   LIG    1       -0.019   1.526   0.010  0.00  0.00    +0.030 C 
ATOM     13  C   LIG    1        0.002  -0.004   0.002  0.00  0.00    +0.050 C 
ENDBRANCH   1  13
BRANCH   4  14
ATOM     14  O   LIG    1       -5.290  -1.956   0.071  0.00  0.00    -0.490 OA
ATOM     15  H   LIG    1       -5.965  -1.263   0.080  0.00  0.00    +0.390 HD
ENDBRANCH   4  14
TORSDOF 3
ENDMDL
MODEL      308
REMARK  Name = ZINC000062719873
REMARK                            x       y       z     vdW  Elec       q    Type
REMARK                         _______ _______ _______ _____ _____    ______ ____
ROOT
ATOM      1  C   LIG    1        1.667  -3.225  -0.025  0.00  0.00    -0.010 A 
ATOM      2  C   LIG    1        1.160  -4.526  -0.035  0.00  0.00    +0.050 A 
ATOM      3  C   LIG    1        2.026  -5.600  -0.046  0.00  0.00    +0.040 A 
ATOM      4  C   LIG    1        3.394  -5.390  -0.046  0.00  0.00    -0.030 A 
ATOM      5  C   LIG    1        3.903  -4.102  -0.035  0.00  0.00    +0.030 A 
ATOM      6 CL   LIG    1        4.478  -6.746  -0.059  0.00  0.00    -0.060 Cl
ATOM      7  C   LIG    1        3.047  -3.020  -0.030  0.00  0.00    +0.050 A 
ENDROOT
BRANCH   1  12
ATOM      8  C   LIG    1       -0.018   1.503   0.010  0.00  0.00    +0.180 C 
ATOM      9  C   LIG    1        0.002  -0.004   0.002  0.00  0.00    +0.000 A 
ATOM     10  C   LIG    1       -1.082  -0.804   0.003  0.00  0.00    -0.060 A 
ATOM     11  C   LIG    1       -0.613  -2.134  -0.007  0.00  0.00    -0.030 A 
ATOM     12  C   LIG    1        0.745  -2.070  -0.013  0.00  0.00    +0.020 A 
ATOM     13  O   LIG    1        1.104  -0.772  -0.013  0.00  0.00    -0.170 OA
ENDBRANCH   1  12
TORSDOF 1
ENDMDL
MODEL      309
REMARK  Name = ZINC000062720694
REMARK                            x       y       z     vdW  Elec       q    Type
REMARK                         _______ _______ _______ _____ _____    ______ ____
ROOT
ATOM      1  C   LIG    1        1.215  -4.100  -0.069  0.00  0.00    -0.060 A 
ATOM      2  C   LIG    1        0.212  -5.020   0.238  0.00  0.00    +0.040 A 
ATOM      3  C   LIG    1        0.481  -6.372   0.195  0.00  0.00    -0.010 A 
ATOM      4  C   LIG    1        1.750  -6.817  -0.152  0.00  0.00    +0.100 A 
ATOM      5  C   LIG    1        2.751  -5.905  -0.458  0.00  0.00    -0.010 A 
ATOM      6  C   LIG    1        2.487  -4.553  -0.423  0.00  0.00    +0.040 A 
ENDROOT
BRANCH   1  11
ATOM      7  C   LIG    1       -0.019   1.526   0.010  0.00  0.00    +0.030 C 
ATOM      8  C   LIG    1        0.002  -0.004   0.002  0.00  0.00    -0.020 C 
ATOM      9  C   LIG    1        0.726  -0.501  -1.251  0.00  0.00    +0.070 C 
ATOM     10  C   LIG    1        0.982  -1.977  -1.148  0.00  0.00    -0.030 C 
ATOM     11  C   LIG    1        0.930  -2.651  -0.024  0.00  0.00    -0.090 C 
ATOM     12  C   LIG    1        0.599  -2.036   1.304  0.00  0.00    +0.060 C 
ATOM     13  C   LIG    1        0.752  -0.516   1.238  0.00  0.00    +0.020 C 
ENDBRANCH   1  11
BRANCH   4  14
ATOM     14  O   LIG    1        2.012  -8.150  -0.194  0.00  0.00    -0.500 OA
ATOM     15  H   LIG    1        1.847  -8.557  -1.056  0.00  0.00    +0.390 HD
ENDBRANCH   4  14
TORSDOF 2
ENDMDL
MODEL      310
REMARK  Name = ZINC000082200336
REMARK                            x       y       z     vdW  Elec       q    Type
REMARK                         _______ _______ _______ _____ _____    ______ ____
ROOT
ATOM      1  C   LIG    1        0.707  -0.490  -1.238  0.00  0.00    -0.050 A 
ATOM      2  C   LIG    1        0.033  -1.287  -2.151  0.00  0.00    +0.030 A 
ATOM      3  C   LIG    1        0.654  -1.736  -3.278  0.00  0.00    +0.080 A 
ATOM      4  C   LIG    1        1.998  -1.396  -3.535  0.00  0.00    +0.070 A 
ATOM      5  N   LIG    1        2.786  -1.731  -4.574  0.00  0.00    -0.460 NA
ATOM      6  C   LIG    1        3.987  -1.292  -4.579  0.00  0.00    +0.270 A 
ATOM      7  S   LIG    1        4.312  -0.342  -3.199  0.00  0.00    +0.090 S 
ATOM      8  C   LIG    1        2.672  -0.591  -2.610  0.00  0.00    -0.180 A 
ATOM      9  C   LIG    1        2.019  -0.138  -1.466  0.00  0.00    +0.060 A 
ENDROOT
BRANCH   1  11
ATOM     10  C   LIG    1       -0.019   1.526   0.010  0.00  0.00    +0.040 C 
ATOM     11  C   LIG    1        0.002  -0.004   0.002  0.00  0.00    -0.030 C 
ATOM     12  C   LIG    1       -1.433  -0.534   0.013  0.00  0.00    +0.030 C 
ATOM     13  C   LIG    1        0.742  -0.511   1.242  0.00  0.00    +0.040 C 
ENDBRANCH   1  11
TORSDOF 1
ENDMDL
MODEL      311
REMARK  Name = ZINC000089195219
REMARK                            x       y       z     vdW  Elec       q    Type
REMARK                         _______ _______ _______ _____ _____    ______ ____
ROOT
ATOM      1  C   LIG    1        0.707  -0.490  -1.238  0.00  0.00    -0.010 A 
ATOM      2  C   LIG    1        0.845  -1.873  -1.468  0.00  0.00    +0.080 A 
ATOM      3  N   LIG    1        0.429  -2.915  -0.723  0.00  0.00    -0.460 NA
ATOM      4  C   LIG    1        0.679  -4.094  -1.152  0.00  0.00    +0.260 A 
ATOM      5  S   LIG    1        1.520  -4.056  -2.636  0.00  0.00    +0.090 S 
ATOM      6  C   LIG    1        1.505  -2.295  -2.628  0.00  0.00    -0.180 A 
ATOM      7  C   LIG    1        2.009  -1.360  -3.529  0.00  0.00    +0.050 A 
ATOM      8  C   LIG    1        1.859  -0.014  -3.278  0.00  0.00    +0.050 A 
ATOM      9  C   LIG    1        1.203   0.411  -2.132  0.00  0.00    +0.020 A 
ENDROOT
BRANCH   1  11
ATOM     10  C   LIG    1       -0.019   1.526   0.010  0.00  0.00    +0.030 C 
ATOM     11  C   LIG    1        0.002  -0.004   0.002  0.00  0.00    -0.020 C 
ATOM     12  C   LIG    1       -1.433  -0.534   0.013  0.00  0.00    +0.040 C 
ATOM     13  C   LIG    1        0.742  -0.511   1.242  0.00  0.00    +0.040 C 
ENDBRANCH   1  11
TORSDOF 1
ENDMDL
MODEL      312
REMARK  Name = ZINC000114532301
REMARK                            x       y       z     vdW  Elec       q    Type
REMARK                         _______ _______ _______ _____ _____    ______ ____
ROOT
ATOM      1  C   LIG    1        0.707  -0.490  -1.238  0.00  0.00    -0.050 A 
ATOM      2  C   LIG    1        0.021  -1.290  -2.149  0.00  0.00    +0.010 A 
ATOM      3  C   LIG    1        0.626  -1.747  -3.280  0.00  0.00    +0.050 A 
ATOM      4  C   LIG    1        1.964  -1.407  -3.533  0.00  0.00    -0.120 A 
ATOM      5  C   LIG    1        2.641  -1.848  -4.682  0.00  0.00    +0.310 A 
ATOM      6  N   LIG    1        3.892  -1.504  -4.876  0.00  0.00    -0.490 NA
ATOM      7  C   LIG    1        4.568  -0.744  -4.025  0.00  0.00    +0.230 A 
ATOM      8  C   LIG    1        4.003  -0.266  -2.883  0.00  0.00    -0.020 A 
ATOM      9  C   LIG    1        2.663  -0.592  -2.605  0.00  0.00    -0.020 A 
ATOM     10  C   LIG    1        2.005  -0.136  -1.454  0.00  0.00    +0.020 A 
ENDROOT
BRANCH   1  12
ATOM     11  C   LIG    1       -0.019   1.526   0.010  0.00  0.00    +0.040 C 
ATOM     12  C   LIG    1        0.002  -0.004   0.002  0.00  0.00    -0.030 C 
ATOM     13  C   LIG    1       -1.433  -0.534   0.013  0.00  0.00    +0.030 C 
ATOM     14  C   LIG    1        0.742  -0.511   1.242  0.00  0.00    +0.040 C 
ENDBRANCH   1  12
TORSDOF 1
ENDMDL
MODEL      313
REMARK  Name = ZINC000095093897
REMARK                            x       y       z     vdW  Elec       q    Type
REMARK                         _______ _______ _______ _____ _____    ______ ____
ROOT
ATOM      1  C   LIG    1        0.707  -0.490  -1.238  0.00  0.00    +0.080 A 
ATOM      2  C   LIG    1        1.305   0.337  -2.101  0.00  0.00    -0.080 A 
ATOM      3  S   LIG    1        1.998  -0.637  -3.395  0.00  0.00    +0.110 S 
ATOM      4  C   LIG    1        1.416  -2.060  -2.647  0.00  0.00    +0.060 A 
ATOM      5  N   LIG    1        0.790  -1.766  -1.557  0.00  0.00    -0.470 NA
ENDROOT
BRANCH   1   7
ATOM      6  C   LIG    1       -0.019   1.526   0.010  0.00  0.00    +0.040 C 
ATOM      7  C   LIG    1        0.002  -0.004   0.002  0.00  0.00    +0.010 C 
ATOM      8  C   LIG    1       -1.433  -0.534   0.013  0.00  0.00    +0.030 C 
ATOM      9  C   LIG    1        0.742  -0.511   1.242  0.00  0.00    +0.030 C 
ENDBRANCH   1   7
BRANCH   4  10
ATOM     10  C   LIG    1        1.610  -3.457  -3.179  0.00  0.00    +0.080 C 
ATOM     11  C   LIG    1        1.522  -3.549  -4.712  0.00  0.00    +0.030 C 
ATOM     12  C   LIG    1        2.694  -4.542  -4.641  0.00  0.00    +0.030 C 
ATOM     13  C   LIG    1        3.086  -3.863  -3.318  0.00  0.00    +0.030 C 
ENDBRANCH   4  10
TORSDOF 2
ENDMDL
MODEL      314
REMARK  Name = ZINC000001766403
REMARK                            x       y       z     vdW  Elec       q    Type
REMARK                         _______ _______ _______ _____ _____    ______ ____
ROOT
ATOM      1  C   LIG    1        0.707  -0.490  -1.238  0.00  0.00    +0.110 A 
ATOM      2  N   LIG    1        1.923  -0.218  -1.528  0.00  0.00    -0.470 NA
ATOM      3  C   LIG    1        2.425  -0.721  -2.671  0.00  0.00    +0.080 A 
ATOM      4  C   LIG    1        3.713  -0.583  -3.227  0.00  0.00    +0.060 A 
ATOM      5  C   LIG    1        4.021  -1.181  -4.411  0.00  0.00    +0.030 A 
ATOM      6  C   LIG    1        3.078  -1.937  -5.092  0.00  0.00    +0.040 A 
ATOM      7  C   LIG    1        1.812  -2.089  -4.573  0.00  0.00    +0.060 A 
ATOM      8  C   LIG    1        1.478  -1.485  -3.363  0.00  0.00    -0.190 A 
ATOM      9  S   LIG    1       -0.014  -1.478  -2.428  0.00  0.00    +0.100 S 
ENDROOT
BRANCH   1  11
ATOM     10  C   LIG    1       -0.019   1.526   0.010  0.00  0.00    +0.060 C 
ATOM     11  C   LIG    1        0.002  -0.004   0.002  0.00  0.00    +0.010 C 
ATOM     12  C   LIG    1       -1.433  -0.534   0.013  0.00  0.00    +0.040 C 
ATOM     13  C   LIG    1        0.742  -0.511   1.242  0.00  0.00    +0.060 C 
ENDBRANCH   1  11
TORSDOF 1
ENDMDL
MODEL      315
REMARK  Name = ZINC000001842429
REMARK                            x       y       z     vdW  Elec       q    Type
REMARK                         _______ _______ _______ _____ _____    ______ ____
ROOT
ATOM      1  C   LIG    1        2.560  -2.913   2.958  0.00  0.00    -0.020 C 
ATOM      2  C   LIG    1        1.075  -3.243   2.790  0.00  0.00    +0.020 C 
ENDROOT
BRANCH   1   3
ATOM      3  C   LIG    1        2.724  -1.412   3.203  0.00  0.00    +0.030 C 
BRANCH   3   4
ATOM      4  C   LIG    1        2.277  -0.641   1.960  0.00  0.00    +0.160 C 
BRANCH   4   5
ATOM      5  O   LIG    1        2.431   0.761   2.188  0.00  0.00    -0.390 OA
BRANCH   5   7
ATOM      6  C   LIG    1        2.245   3.051   1.437  0.00  0.00    +0.040 C 
ATOM      7  C   LIG    1        2.039   1.577   1.082  0.00  0.00    +0.160 C 
ENDBRANCH   5   7
ENDBRANCH   4   5
ENDBRANCH   3   4
ENDBRANCH   1   3
BRANCH   1   8
ATOM      8  C   LIG    1        3.122  -3.689   4.151  0.00  0.00    +0.010 C 
BRANCH   8   9
ATOM      9  C   LIG    1        3.071  -5.189   3.854  0.00  0.00    +0.040 C 
BRANCH   9  10
ATOM     10  C   LIG    1        3.625  -5.953   5.029  0.00  0.00    -0.060 C 
ATOM     11  C   LIG    1        4.593  -6.818   4.850  0.00  0.00    -0.140 C 
ATOM     12  C   LIG    1        5.242  -7.479   6.039  0.00  0.00    +0.060 C 
ATOM     13  C   LIG    1        5.056  -7.153   3.456  0.00  0.00    +0.080 C 
ENDBRANCH   9  10
ENDBRANCH   8   9
ENDBRANCH   1   8
TORSDOF 7
ENDMDL
MODEL      316
REMARK  Name = ZINC000001842427
REMARK                            x       y       z     vdW  Elec       q    Type
REMARK                         _______ _______ _______ _____ _____    ______ ____
ROOT
ATOM      1  C   LIG    1        1.968  -4.964   1.898  0.00  0.00    -0.020 C 
ATOM      2  C   LIG    1        2.995  -5.718   1.051  0.00  0.00    +0.020 C 
ENDROOT
BRANCH   1   3
ATOM      3  C   LIG    1        1.819  -3.536   1.369  0.00  0.00    +0.030 C 
BRANCH   3   4
ATOM      4  C   LIG    1        1.230  -3.574  -0.043  0.00  0.00    +0.160 C 
BRANCH   4   5
ATOM      5  O   LIG    1        1.091  -2.240  -0.537  0.00  0.00    -0.390 OA
BRANCH   5   7
ATOM      6  C   LIG    1        0.444  -0.697  -2.280  0.00  0.00    +0.040 C 
ATOM      7  C   LIG    1        0.546  -2.163  -1.856  0.00  0.00    +0.160 C 
ENDBRANCH   5   7
ENDBRANCH   4   5
ENDBRANCH   3   4
ENDBRANCH   1   3
BRANCH   1   8
ATOM      8  C   LIG    1        2.438  -4.923   3.353  0.00  0.00    +0.010 C 
BRANCH   8   9
ATOM      9  C   LIG    1        2.467  -6.343   3.921  0.00  0.00    +0.040 C 
BRANCH   9  10
ATOM     10  C   LIG    1        2.931  -6.302   5.354  0.00  0.00    -0.060 C 
ATOM     11  C   LIG    1        2.164  -6.775   6.305  0.00  0.00    -0.130 C 
ATOM     12  C   LIG    1        2.679  -6.856   7.718  0.00  0.00    +0.070 C 
ATOM     13  C   LIG    1        0.766  -7.238   5.984  0.00  0.00    +0.080 C 
ENDBRANCH   9  10
ENDBRANCH   8   9
ENDBRANCH   1   8
TORSDOF 7
ENDMDL
MODEL      317
REMARK  Name = ZINC000217607478
REMARK                            x       y       z     vdW  Elec       q    Type
REMARK                         _______ _______ _______ _____ _____    ______ ____
ROOT
ATOM      1  C   LIG    1       -0.018   1.503   0.010  0.00  0.00    +0.110 C 
ATOM      2  C   LIG    1        0.002  -0.004   0.002  0.00  0.00    -0.080 A 
ATOM      3  C   LIG    1        0.006  -0.682  -1.198  0.00  0.00    +0.030 A 
ATOM      4  C   LIG    1        0.023  -2.066  -1.209  0.00  0.00    -0.050 A 
ATOM      5  C   LIG    1        0.034  -2.764  -0.017  0.00  0.00    +0.030 A 
ATOM      6  C   LIG    1        0.029  -2.087   1.193  0.00  0.00    -0.100 A 
ATOM      7  C   LIG    1        0.032  -2.902   2.462  0.00  0.00    +0.030 C 
ATOM      8  C   LIG    1        1.043  -4.044   2.340  0.00  0.00    +0.030 C 
ATOM      9  C   LIG    1        0.410  -2.012   3.646  0.00  0.00    +0.000 C 
ATOM     10  C   LIG    1       -0.414  -0.722   3.556  0.00  0.00    +0.230 C 
ATOM     11  N   LIG    1        0.035   0.041   2.389  0.00  0.00    -0.630 N 
ATOM     12  H   LIG    1        0.945   0.446   2.551  0.00  0.00    +0.360 HD
ATOM     13 CL   LIG    1        0.032  -2.923  -2.719  0.00  0.00    -0.070 Cl
ATOM     14  C   LIG    1        0.023  -0.704   1.210  0.00  0.00    +0.120 A 
ENDROOT
TORSDOF 0
ENDMDL
MODEL      318
REMARK  Name = ZINC000217607401
REMARK                            x       y       z     vdW  Elec       q    Type
REMARK                         _______ _______ _______ _____ _____    ______ ____
ROOT
ATOM      1  C   LIG    1       -0.018   1.503   0.010  0.00  0.00    +0.110 C 
ATOM      2  C   LIG    1        0.002  -0.004   0.002  0.00  0.00    -0.080 A 
ATOM      3  C   LIG    1        0.006  -0.682  -1.198  0.00  0.00    +0.030 A 
ATOM      4  C   LIG    1        0.023  -2.066  -1.209  0.00  0.00    -0.050 A 
ATOM      5  C   LIG    1        0.034  -2.764  -0.017  0.00  0.00    +0.030 A 
ATOM      6  C   LIG    1        0.029  -2.087   1.193  0.00  0.00    -0.100 A 
ATOM      7  C   LIG    1        0.032  -2.902   2.462  0.00  0.00    +0.040 C 
ATOM      8  C   LIG    1       -1.366  -3.481   2.687  0.00  0.00    +0.030 C 
ATOM      9  C   LIG    1        0.410  -2.012   3.646  0.00  0.00    +0.000 C 
ATOM     10  C   LIG    1       -0.414  -0.722   3.556  0.00  0.00    +0.220 C 
ATOM     11  N   LIG    1        0.035   0.041   2.389  0.00  0.00    -0.630 N 
ATOM     12  H   LIG    1        0.945   0.446   2.551  0.00  0.00    +0.360 HD
ATOM     13 CL   LIG    1        0.032  -2.923  -2.719  0.00  0.00    -0.070 Cl
ATOM     14  C   LIG    1        0.023  -0.704   1.210  0.00  0.00    +0.120 A 
ENDROOT
TORSDOF 0
ENDMDL
MODEL      319
REMARK  Name = ZINC000217607861
REMARK                            x       y       z     vdW  Elec       q    Type
REMARK                         _______ _______ _______ _____ _____    ______ ____
ROOT
ATOM      1  C   LIG    1       -0.357   1.245  -0.378  0.00  0.00    +0.110 C 
ATOM      2  C   LIG    1       -0.312  -0.255  -0.245  0.00  0.00    -0.090 A 
ATOM      3  C   LIG    1       -0.426  -1.046  -1.368  0.00  0.00    +0.030 A 
ATOM      4  C   LIG    1       -0.387  -2.423  -1.250  0.00  0.00    +0.010 A 
ATOM      5  C   LIG    1       -0.236  -3.003  -0.005  0.00  0.00    -0.020 A 
ATOM      6  C   LIG    1       -0.121  -2.214   1.129  0.00  0.00    -0.110 A 
ATOM      7  C   LIG    1        0.033  -2.902   2.462  0.00  0.00    +0.030 C 
ATOM      8  C   LIG    1        1.045  -4.043   2.338  0.00  0.00    +0.030 C 
ATOM      9  C   LIG    1        0.522  -1.900   3.508  0.00  0.00    +0.000 C 
ATOM     10  C   LIG    1       -0.329  -0.630   3.385  0.00  0.00    +0.230 C 
ATOM     11  N   LIG    1       -0.022   0.019   2.109  0.00  0.00    -0.630 N 
ATOM     12  H   LIG    1        0.893   0.445   2.131  0.00  0.00    +0.360 HD
ATOM     13 CL   LIG    1       -0.189  -4.733   0.140  0.00  0.00    -0.060 Cl
ATOM     14  C   LIG    1       -0.149  -0.835   1.015  0.00  0.00    +0.120 A 
ENDROOT
TORSDOF 0
ENDMDL
MODEL      320
REMARK  Name = ZINC000064219815
REMARK                            x       y       z     vdW  Elec       q    Type
REMARK                         _______ _______ _______ _____ _____    ______ ____
ROOT
ATOM      1  C   LIG    1       -0.018   1.503   0.010  0.00  0.00    +0.110 C 
ATOM      2  C   LIG    1        0.002  -0.004   0.002  0.00  0.00    -0.060 A 
ATOM      3  C   LIG    1        0.006  -0.688  -1.199  0.00  0.00    +0.040 A 
ATOM      4  C   LIG    1        0.024  -2.072  -1.207  0.00  0.00    -0.030 A 
ATOM      5  C   LIG    1        0.039  -2.770  -0.013  0.00  0.00    +0.030 A 
ATOM      6  C   LIG    1        0.036  -2.085   1.189  0.00  0.00    -0.020 A 
ATOM      7 CL   LIG    1        0.056  -2.960   2.688  0.00  0.00    -0.050 Cl
ATOM      8 CL   LIG    1        0.029  -2.931  -2.716  0.00  0.00    -0.060 Cl
ATOM      9  C   LIG    1        0.023  -0.701   1.196  0.00  0.00    -0.070 A 
ATOM     10  C   LIG    1        0.020   0.045   2.505  0.00  0.00    +0.110 C 
ENDROOT
TORSDOF 0
ENDMDL
MODEL      321
REMARK  Name = ZINC000065339920
REMARK                            x       y       z     vdW  Elec       q    Type
REMARK                         _______ _______ _______ _____ _____    ______ ____
ROOT
ATOM      1  C   LIG    1       -0.018   1.503   0.010  0.00  0.00    +0.090 C 
ATOM      2  C   LIG    1        0.002  -0.004   0.002  0.00  0.00    -0.090 A 
ATOM      3  C   LIG    1        0.006  -0.688  -1.200  0.00  0.00    +0.010 A 
ATOM      4  C   LIG    1        0.025  -2.071  -1.215  0.00  0.00    +0.000 A 
ATOM      5  C   LIG    1        0.040  -2.776  -0.029  0.00  0.00    +0.010 A 
ATOM      6  C   LIG    1        0.036  -2.093   1.185  0.00  0.00    -0.050 A 
ATOM      7  C   LIG    1        0.023  -0.699   1.194  0.00  0.00    -0.070 A 
ATOM      8  C   LIG    1        0.019   0.047   2.503  0.00  0.00    +0.090 C 
ENDROOT
BRANCH   6   9
ATOM      9  C   LIG    1        0.053  -2.845   2.463  0.00  0.00    -0.050 A 
ATOM     10  C   LIG    1        0.973  -2.515   3.457  0.00  0.00    +0.040 A 
ATOM     11  C   LIG    1        0.985  -3.217   4.644  0.00  0.00    -0.010 A 
ATOM     12  C   LIG    1        0.082  -4.251   4.850  0.00  0.00    +0.110 A 
ATOM     13  C   LIG    1       -0.836  -4.582   3.863  0.00  0.00    -0.010 A 
ATOM     14  C   LIG    1       -0.857  -3.880   2.676  0.00  0.00    +0.040 A 
BRANCH  12  15
ATOM     15  O   LIG    1        0.097  -4.940   6.021  0.00  0.00    -0.500 OA
ATOM     16  H   LIG    1       -0.476  -4.566   6.705  0.00  0.00    +0.390 HD
ENDBRANCH  12  15
ENDBRANCH   6   9
TORSDOF 2
ENDMDL
MODEL      322
REMARK  Name = ZINC000065731390
REMARK                            x       y       z     vdW  Elec       q    Type
REMARK                         _______ _______ _______ _____ _____    ______ ____
ROOT
ATOM      1  C   LIG    1       -1.412  -0.526   0.013  0.00  0.00    -0.140 C 
ATOM      2  C   LIG    1       -2.113  -0.882  -1.071  0.00  0.00    -0.030 C 
ATOM      3  C   LIG    1       -3.424  -1.440  -0.606  0.00  0.00    +0.020 C 
ATOM      4  C   LIG    1       -4.756  -1.101  -1.275  0.00  0.00    +0.030 C 
ATOM      5  C   LIG    1       -5.122   0.363  -1.235  0.00  0.00    -0.040 C 
ATOM      6  C   LIG    1       -5.393   0.765  -0.004  0.00  0.00    -0.130 C 
ATOM      7  C   LIG    1       -5.062  -0.454   0.921  0.00  0.00    +0.070 C 
ATOM      8  C   LIG    1       -5.655  -1.588  -0.052  0.00  0.00    +0.020 C 
ATOM      9  C   LIG    1       -3.595  -0.505   0.664  0.00  0.00    -0.070 C 
ATOM     10  C   LIG    1       -2.276  -0.739   1.279  0.00  0.00    +0.100 C 
ENDROOT
BRANCH   1  12
ATOM     11  C   LIG    1       -0.019   1.526   0.010  0.00  0.00    +0.010 C 
ATOM     12  C   LIG    1        0.002  -0.004   0.002  0.00  0.00    +0.070 C 
ENDBRANCH   1  12
BRANCH   6  13
ATOM     13  C   LIG    1       -5.910   2.115   0.420  0.00  0.00    +0.070 C 
ATOM     14  C   LIG    1       -7.434   2.062   0.542  0.00  0.00    +0.030 C 
ENDBRANCH   6  13
TORSDOF 2
ENDMDL
MODEL      323
REMARK  Name = ZINC000065339919
REMARK                            x       y       z     vdW  Elec       q    Type
REMARK                         _______ _______ _______ _____ _____    ______ ____
ROOT
ATOM      1  C   LIG    1       -0.018   1.503   0.010  0.00  0.00    +0.090 C 
ATOM      2  C   LIG    1        0.002  -0.004   0.002  0.00  0.00    -0.090 A 
ATOM      3  C   LIG    1        0.006  -0.688  -1.200  0.00  0.00    +0.010 A 
ATOM      4  C   LIG    1        0.024  -2.071  -1.215  0.00  0.00    +0.000 A 
ATOM      5  C   LIG    1        0.039  -2.776  -0.029  0.00  0.00    +0.010 A 
ATOM      6  C   LIG    1        0.036  -2.092   1.185  0.00  0.00    -0.050 A 
ATOM      7  C   LIG    1        0.023  -0.699   1.194  0.00  0.00    -0.070 A 
ATOM      8  C   LIG    1        0.019   0.047   2.504  0.00  0.00    +0.090 C 
ENDROOT
BRANCH   6   9
ATOM      9  C   LIG    1        0.052  -2.845   2.464  0.00  0.00    -0.030 A 
ATOM     10  C   LIG    1        0.972  -2.516   3.457  0.00  0.00    +0.020 A 
ATOM     11  C   LIG    1        0.985  -3.218   4.646  0.00  0.00    +0.030 A 
ATOM     12  C   LIG    1        0.087  -4.247   4.855  0.00  0.00    -0.010 A 
ATOM     13  C   LIG    1       -0.833  -4.582   3.870  0.00  0.00    +0.110 A 
ATOM     14  C   LIG    1       -0.856  -3.880   2.677  0.00  0.00    +0.000 A 
BRANCH  13  15
ATOM     15  O   LIG    1       -1.713  -5.596   4.080  0.00  0.00    -0.500 OA
ATOM     16  H   LIG    1       -2.546  -5.316   4.485  0.00  0.00    +0.390 HD
ENDBRANCH  13  15
ENDBRANCH   6   9
TORSDOF 2
ENDMDL
MODEL      324
REMARK  Name = ZINC000065731393
REMARK                            x       y       z     vdW  Elec       q    Type
REMARK                         _______ _______ _______ _____ _____    ______ ____
ROOT
ATOM      1  C   LIG    1       -1.412  -0.526   0.013  0.00  0.00    -0.130 C 
ATOM      2  C   LIG    1       -2.069  -0.865  -1.054  0.00  0.00    -0.040 C 
ATOM      3  C   LIG    1       -3.457  -1.352  -0.734  0.00  0.00    +0.020 C 
ATOM      4  C   LIG    1       -3.522  -2.885  -1.024  0.00  0.00    +0.040 C 
ATOM      5  C   LIG    1       -4.958  -3.277  -0.656  0.00  0.00    -0.050 C 
ATOM      6  C   LIG    1       -5.087  -3.205   0.654  0.00  0.00    -0.130 C 
ATOM      7  C   LIG    1       -3.745  -2.759   1.249  0.00  0.00    +0.040 C 
ATOM      8  C   LIG    1       -2.740  -3.443   0.221  0.00  0.00    +0.030 C 
ATOM      9  C   LIG    1       -3.598  -1.252   0.810  0.00  0.00    +0.000 C 
ATOM     10  C   LIG    1       -2.228  -0.722   1.262  0.00  0.00    +0.050 C 
ENDROOT
BRANCH   1  12
ATOM     11  C   LIG    1       -0.019   1.526   0.010  0.00  0.00    +0.010 C 
ATOM     12  C   LIG    1        0.002  -0.004   0.002  0.00  0.00    +0.060 C 
ENDBRANCH   1  12
BRANCH   6  13
ATOM     13  C   LIG    1       -6.339  -3.511   1.434  0.00  0.00    +0.070 C 
ATOM     14  C   LIG    1       -6.296  -4.962   1.920  0.00  0.00    +0.010 C 
ENDBRANCH   6  13
TORSDOF 2
ENDMDL
MODEL      325
REMARK  Name = ZINC000066383336
REMARK                            x       y       z     vdW  Elec       q    Type
REMARK                         _______ _______ _______ _____ _____    ______ ____
ROOT
ATOM      1  C   LIG    1       -0.924   1.343   0.073  0.00  0.00    +0.100 C 
ATOM      2  C   LIG    1       -0.431  -0.081   0.032  0.00  0.00    -0.040 A 
ATOM      3  C   LIG    1       -0.129  -0.673  -1.180  0.00  0.00    +0.000 A 
ATOM      4  C   LIG    1        0.324  -1.978  -1.218  0.00  0.00    -0.020 A 
ATOM      5  C   LIG    1        0.474  -2.692  -0.043  0.00  0.00    -0.200 A 
ATOM      6  C   LIG    1        0.172  -2.099   1.169  0.00  0.00    -0.020 A 
ATOM      7  C   LIG    1        0.336  -2.877   2.449  0.00  0.00    +0.090 C 
ATOM      8  C   LIG    1        0.653  -2.624  -2.539  0.00  0.00    +0.090 C 
ATOM      9  C   LIG    1       -0.277  -0.792   1.207  0.00  0.00    +0.000 A 
ENDROOT
BRANCH   5  10
ATOM     10  C   LIG    1        0.967  -4.115  -0.084  0.00  0.00    +0.510 C 
ATOM     11  F   LIG    1       -0.124  -4.985  -0.181  0.00  0.00    -0.180 F 
ATOM     12  F   LIG    1        1.683  -4.394   1.085  0.00  0.00    -0.180 F 
ATOM     13  F   LIG    1        1.802  -4.288  -1.194  0.00  0.00    -0.170 F 
ENDBRANCH   5  10
TORSDOF 1
ENDMDL
MODEL      326
REMARK  Name = ZINC000002557900
REMARK                            x       y       z     vdW  Elec       q    Type
REMARK                         _______ _______ _______ _____ _____    ______ ____
ROOT
ATOM      1  C   LIG    1        0.777  -1.810  -1.336  0.00  0.00    +0.130 A 
ATOM      2  C   LIG    1        0.243  -2.669  -0.387  0.00  0.00    -0.070 A 
ATOM      3  C   LIG    1        0.351  -4.036  -0.554  0.00  0.00    -0.040 A 
ATOM      4  C   LIG    1        0.991  -4.548  -1.667  0.00  0.00    -0.030 A 
ATOM      5  C   LIG    1        1.524  -3.694  -2.615  0.00  0.00    +0.050 A 
ATOM      6  C   LIG    1        1.414  -2.327  -2.455  0.00  0.00    -0.120 A 
ATOM      7  C   LIG    1        1.995  -1.397  -3.489  0.00  0.00    +0.090 C 
ENDROOT
BRANCH   3   8
ATOM      8  C   LIG    1       -0.229  -4.969   0.477  0.00  0.00    +0.020 C 
ATOM      9  C   LIG    1        0.885  -5.841   1.060  0.00  0.00    +0.040 C 
ATOM     10  C   LIG    1       -1.284  -5.861  -0.179  0.00  0.00    +0.040 C 
ENDBRANCH   3   8
BRANCH   1  11
ATOM     11  O   LIG    1        0.671  -0.465  -1.174  0.00  0.00    -0.310 OA
BRANCH  11  13
ATOM     12  C   LIG    1       -0.019   1.526   0.010  0.00  0.00    +0.070 C 
ATOM     13  C   LIG    1        0.002  -0.004   0.002  0.00  0.00    +0.170 C 
ENDBRANCH  11  13
ENDBRANCH   1  11
TORSDOF 3
ENDMDL
MODEL      327
REMARK  Name = ZINC000022148474
REMARK                            x       y       z     vdW  Elec       q    Type
REMARK                         _______ _______ _______ _____ _____    ______ ____
ROOT
ATOM      1  C   LIG    1        0.474  -0.497   3.705  0.00  0.00    +0.220 A 
ATOM      2  C   LIG    1        1.667  -1.198   3.822  0.00  0.00    -0.080 A 
ATOM      3  C   LIG    1        2.141  -1.548   5.071  0.00  0.00    +0.050 A 
ATOM      4  C   LIG    1        1.429  -1.202   6.205  0.00  0.00    -0.050 A 
ATOM      5  C   LIG    1        0.240  -0.504   6.092  0.00  0.00    -0.030 A 
ATOM      6  C   LIG    1       -0.237  -0.146   4.847  0.00  0.00    -0.080 A 
ENDROOT
BRANCH   5   7
ATOM      7  C   LIG    1       -0.533  -0.129   7.330  0.00  0.00    +0.020 C 
ATOM      8  C   LIG    1        0.335   0.760   8.223  0.00  0.00    +0.040 C 
ATOM      9  C   LIG    1       -0.919  -1.397   8.094  0.00  0.00    +0.040 C 
ENDBRANCH   5   7
BRANCH   1  10
ATOM     10  N   LIG    1       -0.008  -0.140   2.444  0.00  0.00    -0.750 N 
ATOM     11  H   LIG    1       -0.840   0.353   2.364  0.00  0.00    +0.400 HD
BRANCH  10  12
ATOM     12  C   LIG    1        0.742  -0.511   1.242  0.00  0.00    +0.250 C 
BRANCH  12  14
ATOM     13  C   LIG    1       -0.019   1.526   0.010  0.00  0.00    +0.020 C 
ATOM     14  C   LIG    1        0.002  -0.004   0.002  0.00  0.00    -0.030 C 
ATOM     15  C   LIG    1        0.718  -0.497  -1.257  0.00  0.00    +0.030 C 
ENDBRANCH  12  14
ENDBRANCH  10  12
ENDBRANCH   1  10
TORSDOF 4
ENDMDL
MODEL      328
REMARK  Name = ZINC000068571820
REMARK                            x       y       z     vdW  Elec       q    Type
REMARK                         _______ _______ _______ _____ _____    ______ ____
ROOT
ATOM      1  C   LIG    1       -0.018   1.503   0.010  0.00  0.00    +0.080 C 
ATOM      2  C   LIG    1        0.002  -0.004   0.002  0.00  0.00    -0.100 C 
ATOM      3  C   LIG    1       -1.123  -0.674   0.009  0.00  0.00    -0.140 C 
ATOM      4  C   LIG    1       -1.439  -2.191   0.011  0.00  0.00    +0.090 C 
ATOM      5  C   LIG    1       -2.321  -2.297  -1.274  0.00  0.00    +0.030 C 
ATOM      6  C   LIG    1       -3.113  -0.967  -1.282  0.00  0.00    +0.030 C 
ATOM      7  C   LIG    1       -2.421  -2.261   1.180  0.00  0.00    -0.090 A 
ATOM      8  C   LIG    1       -2.779  -3.222   2.130  0.00  0.00    +0.010 A 
ATOM      9  C   LIG    1       -3.773  -2.982   3.063  0.00  0.00    +0.010 A 
ATOM     10  C   LIG    1       -4.463  -1.785   3.050  0.00  0.00    +0.000 A 
ATOM     11  C   LIG    1       -4.162  -0.820   2.103  0.00  0.00    +0.020 A 
ATOM     12  C   LIG    1       -3.175  -1.059   1.177  0.00  0.00    -0.100 A 
ATOM     13  C   LIG    1       -2.608  -0.230   0.026  0.00  0.00    +0.080 C 
ATOM     14  C   LIG    1        1.317  -0.740  -0.015  0.00  0.00    +0.090 C 
ENDROOT
TORSDOF 0
ENDMDL
MODEL      329
REMARK  Name = ZINC000095611681
REMARK                            x       y       z     vdW  Elec       q    Type
REMARK                         _______ _______ _______ _____ _____    ______ ____
ROOT
ATOM      1  C   LIG    1        0.721   2.051  -0.602  0.00  0.00    +0.070 C 
ATOM      2  C   LIG    1        0.502   0.623  -0.173  0.00  0.00    -0.130 C 
ATOM      3  C   LIG    1        0.177  -0.284  -1.060  0.00  0.00    -0.120 C 
ATOM      4  C   LIG    1        0.024  -1.795  -0.833  0.00  0.00    +0.020 C 
ATOM      5  C   LIG    1       -1.510  -2.053  -0.934  0.00  0.00    +0.010 C 
ATOM      6  C   LIG    1       -1.841  -1.852  -2.431  0.00  0.00    +0.000 C 
ATOM      7  C   LIG    1       -0.475  -1.483  -3.086  0.00  0.00    +0.010 C 
ATOM      8  C   LIG    1        0.525  -2.353  -2.212  0.00  0.00    +0.020 C 
ATOM      9  C   LIG    1       -0.137  -0.065  -2.533  0.00  0.00    -0.030 C 
ATOM     10  C   LIG    1        1.069   0.521  -3.269  0.00  0.00    +0.040 C 
ATOM     11  C   LIG    1       -1.347   0.862  -2.670  0.00  0.00    +0.040 C 
ATOM     12  C   LIG    1        0.659   0.239   1.275  0.00  0.00    +0.070 C 
ENDROOT
TORSDOF 0
ENDMDL
MODEL      330
REMARK  Name = ZINC000001596157
REMARK                            x       y       z     vdW  Elec       q    Type
REMARK                         _______ _______ _______ _____ _____    ______ ____
ROOT
ATOM      1  C   LIG    1        0.777  -1.810  -1.336  0.00  0.00    +0.130 A 
ATOM      2  C   LIG    1        0.242  -2.668  -0.385  0.00  0.00    -0.080 A 
ATOM      3  C   LIG    1        0.348  -4.037  -0.546  0.00  0.00    +0.050 A 
ATOM      4  C   LIG    1        0.985  -4.558  -1.654  0.00  0.00    -0.020 A 
ATOM      5  C   LIG    1        1.525  -3.703  -2.614  0.00  0.00    -0.010 A 
ATOM      6  C   LIG    1        1.413  -2.325  -2.454  0.00  0.00    -0.020 A 
ENDROOT
BRANCH   5   7
ATOM      7  C   LIG    1        2.210  -4.261  -3.806  0.00  0.00    -0.050 A 
ATOM      8  C   LIG    1        2.755  -3.407  -4.763  0.00  0.00    +0.020 A 
ATOM      9  C   LIG    1        3.391  -3.932  -5.870  0.00  0.00    +0.010 A 
ATOM     10  C   LIG    1        3.489  -5.302  -6.030  0.00  0.00    +0.000 A 
ATOM     11  C   LIG    1        2.950  -6.154  -5.083  0.00  0.00    +0.010 A 
ATOM     12  C   LIG    1        2.317  -5.641  -3.969  0.00  0.00    +0.020 A 
ENDBRANCH   5   7
BRANCH   1  13
ATOM     13  O   LIG    1        0.671  -0.465  -1.174  0.00  0.00    -0.320 OA
BRANCH  13  15
ATOM     14  C   LIG    1       -0.019   1.526   0.010  0.00  0.00    +0.070 C 
ATOM     15  C   LIG    1        0.002  -0.004   0.002  0.00  0.00    +0.170 C 
ENDBRANCH  13  15
ENDBRANCH   1  13
TORSDOF 3
ENDMDL
MODEL      331
REMARK  Name = ZINC000001696806
REMARK                            x       y       z     vdW  Elec       q    Type
REMARK                         _______ _______ _______ _____ _____    ______ ____
ROOT
ATOM      1  C   LIG    1       -1.498  -1.848   0.006  0.00  0.00    +0.140 A 
ATOM      2  C   LIG    1       -0.390  -2.679  -0.003  0.00  0.00    -0.080 A 
ATOM      3  C   LIG    1       -0.554  -4.051  -0.009  0.00  0.00    +0.050 A 
ATOM      4  C   LIG    1       -1.823  -4.603  -0.005  0.00  0.00    -0.030 A 
ATOM      5  C   LIG    1       -2.936  -3.787   0.004  0.00  0.00    +0.060 A 
ATOM      6  C   LIG    1       -2.782  -2.402   0.016  0.00  0.00    -0.080 A 
ENDROOT
BRANCH   6   7
ATOM      7  C   LIG    1       -3.974  -1.520   0.026  0.00  0.00    -0.040 A 
ATOM      8  C   LIG    1       -4.072  -0.486   0.955  0.00  0.00    +0.030 A 
ATOM      9  C   LIG    1       -5.184   0.331   0.960  0.00  0.00    +0.000 A 
ATOM     10  C   LIG    1       -6.200   0.126   0.044  0.00  0.00    +0.000 A 
ATOM     11  C   LIG    1       -6.109  -0.899  -0.880  0.00  0.00    +0.000 A 
ATOM     12  C   LIG    1       -4.999  -1.719  -0.898  0.00  0.00    +0.010 A 
ENDBRANCH   6   7
BRANCH   1  13
ATOM     13  O   LIG    1       -1.339  -0.499   0.012  0.00  0.00    -0.310 OA
BRANCH  13  15
ATOM     14  C   LIG    1       -0.019   1.526   0.010  0.00  0.00    +0.070 C 
ATOM     15  C   LIG    1        0.002  -0.004   0.002  0.00  0.00    +0.170 C 
ENDBRANCH  13  15
ENDBRANCH   1  13
TORSDOF 3
ENDMDL
MODEL      332
REMARK  Name = ZINC000001725629
REMARK                            x       y       z     vdW  Elec       q    Type
REMARK                         _______ _______ _______ _____ _____    ______ ____
ROOT
ATOM      1  S   LIG    1        2.450  -0.956   0.866  0.00  0.00    -0.110 S 
ENDROOT
BRANCH   1   7
ATOM      2  C   LIG    1       -0.389   1.105   0.045  0.00  0.00    +0.030 C 
ATOM      3  C   LIG    1       -0.092  -0.391  -0.065  0.00  0.00    +0.010 C 
ATOM      4  C   LIG    1       -1.407  -1.188  -0.116  0.00  0.00    +0.020 C 
ATOM      5  C   LIG    1       -1.403  -2.125   1.109  0.00  0.00    +0.020 C 
ATOM      6  C   LIG    1        0.097  -2.288   1.458  0.00  0.00    +0.030 C 
ATOM      7  C   LIG    1        0.667  -0.872   1.190  0.00  0.00    +0.020 C 
ENDBRANCH   1   7
BRANCH   1   8
ATOM      8  C   LIG    1        3.119  -1.386   2.438  0.00  0.00    -0.080 A 
ATOM      9  C   LIG    1        2.293  -1.439   3.555  0.00  0.00    -0.010 A 
ATOM     10  C   LIG    1        2.821  -1.776   4.786  0.00  0.00    +0.030 A 
ATOM     11  C   LIG    1        4.169  -2.060   4.908  0.00  0.00    +0.000 A 
ATOM     12  C   LIG    1        4.993  -2.007   3.799  0.00  0.00    +0.030 A 
ATOM     13  C   LIG    1        4.472  -1.677   2.564  0.00  0.00    +0.030 A 
ENDBRANCH   1   8
TORSDOF 2
ENDMDL
MODEL      333
REMARK  Name = ZINC000005413598
REMARK                            x       y       z     vdW  Elec       q    Type
REMARK                         _______ _______ _______ _____ _____    ______ ____
ROOT
ATOM      1  C   LIG    1       -1.708  -1.861  -0.530  0.00  0.00    -0.180 A 
ATOM      2  C   LIG    1       -0.678  -2.651  -1.052  0.00  0.00    +0.060 A 
ATOM      3  C   LIG    1       -0.964  -3.902  -1.559  0.00  0.00    +0.000 A 
ATOM      4  C   LIG    1       -2.264  -4.375  -1.553  0.00  0.00    -0.040 A 
ATOM      5  C   LIG    1       -3.288  -3.599  -1.038  0.00  0.00    +0.000 A 
ATOM      6  C   LIG    1       -3.018  -2.349  -0.522  0.00  0.00    +0.070 A 
ENDROOT
BRANCH   4   7
ATOM      7  C   LIG    1       -2.567  -5.742  -2.109  0.00  0.00    +0.020 C 
ATOM      8  C   LIG    1       -3.555  -5.613  -3.270  0.00  0.00    +0.030 C 
ATOM      9  C   LIG    1       -3.180  -6.614  -1.012  0.00  0.00    +0.030 C 
ENDBRANCH   4   7
BRANCH   1  10
ATOM     10  C   LIG    1       -1.412  -0.526   0.013  0.00  0.00    +0.400 C 
ATOM     11  O   LIG    1       -2.306   0.155   0.469  0.00  0.00    -0.450 OA
BRANCH  10  13
ATOM     12  C   LIG    1       -0.019   1.526   0.010  0.00  0.00    +0.050 C 
ATOM     13  C   LIG    1        0.002  -0.004   0.002  0.00  0.00    -0.040 C 
ATOM     14  C   LIG    1        0.742  -0.511   1.242  0.00  0.00    +0.050 C 
ENDBRANCH  10  13
ENDBRANCH   1  10
TORSDOF 3
ENDMDL
MODEL      334
REMARK  Name = ZINC000034049755
REMARK                            x       y       z     vdW  Elec       q    Type
REMARK                         _______ _______ _______ _____ _____    ______ ____
ROOT
ATOM      1  C   LIG    1        0.777  -1.810  -1.336  0.00  0.00    +0.130 A 
ATOM      2  C   LIG    1        0.235  -2.666  -0.373  0.00  0.00    -0.060 A 
ATOM      3  C   LIG    1        0.325  -4.016  -0.507  0.00  0.00    +0.060 A 
ATOM      4  C   LIG    1        0.970  -4.564  -1.630  0.00  0.00    -0.080 A 
ATOM      5  C   LIG    1        1.081  -5.954  -1.800  0.00  0.00    +0.030 A 
ATOM      6  C   LIG    1        1.712  -6.450  -2.900  0.00  0.00    -0.090 A 
ATOM      7  C   LIG    1        2.253  -5.598  -3.862  0.00  0.00    +0.020 A 
ATOM      8  C   LIG    1        2.165  -4.247  -3.730  0.00  0.00    +0.020 A 
ATOM      9  C   LIG    1        1.828  -7.941  -3.079  0.00  0.00    +0.090 C 
ATOM     10  C   LIG    1        1.520  -3.697  -2.608  0.00  0.00    -0.020 A 
ATOM     11  C   LIG    1        1.406  -2.308  -2.442  0.00  0.00    -0.020 A 
ENDROOT
BRANCH   1  12
ATOM     12  O   LIG    1        0.671  -0.465  -1.174  0.00  0.00    -0.320 OA
BRANCH  12  14
ATOM     13  C   LIG    1       -0.019   1.526   0.010  0.00  0.00    +0.070 C 
ATOM     14  C   LIG    1        0.002  -0.004   0.002  0.00  0.00    +0.170 C 
ENDBRANCH  12  14
ENDBRANCH   1  12
TORSDOF 2
ENDMDL
MODEL      335
REMARK  Name = ZINC000035881999
REMARK                            x       y       z     vdW  Elec       q    Type
REMARK                         _______ _______ _______ _____ _____    ______ ____
ROOT
ATOM      1  C   LIG    1       -2.817  -3.109   0.012  0.00  0.00    -0.070 A 
ATOM      2  C   LIG    1       -3.425  -3.421   1.214  0.00  0.00    +0.040 A 
ATOM      3  C   LIG    1       -4.660  -4.043   1.223  0.00  0.00    +0.030 A 
ATOM      4  C   LIG    1       -5.287  -4.352   0.029  0.00  0.00    -0.030 A 
ATOM      5  C   LIG    1       -4.677  -4.040  -1.173  0.00  0.00    +0.030 A 
ATOM      6 CL   LIG    1       -6.838  -5.133   0.040  0.00  0.00    -0.070 Cl
ATOM      7  C   LIG    1       -3.446  -3.413  -1.181  0.00  0.00    +0.040 A 
ENDROOT
BRANCH   1   8
ATOM      8  C   LIG    1       -1.471  -2.431   0.003  0.00  0.00    +0.130 C 
BRANCH   8   9
ATOM      9  S   LIG    1       -1.700  -0.632   0.015  0.00  0.00    -0.250 S 
BRANCH   9  11
ATOM     10  C   LIG    1       -0.019   1.526   0.010  0.00  0.00    +0.070 C 
ATOM     11  C   LIG    1        0.002  -0.004   0.002  0.00  0.00    +0.070 C 
ENDBRANCH   9  11
ENDBRANCH   8   9
ENDBRANCH   1   8
TORSDOF 3
ENDMDL
MODEL      336
REMARK  Name = ZINC000095729745
REMARK                            x       y       z     vdW  Elec       q    Type
REMARK                         _______ _______ _______ _____ _____    ______ ____
ROOT
ATOM      1  C   LIG    1        0.777  -2.342  -1.327  0.00  0.00    -0.090 A 
ATOM      2  C   LIG    1        0.154  -2.913  -0.224  0.00  0.00    -0.010 A 
ATOM      3  C   LIG    1        0.098  -4.287  -0.100  0.00  0.00    +0.020 A 
ATOM      4  C   LIG    1        0.661  -5.095  -1.071  0.00  0.00    -0.080 A 
ATOM      5  C   LIG    1        1.282  -4.530  -2.170  0.00  0.00    +0.030 A 
ATOM      6  C   LIG    1        1.337  -3.157  -2.304  0.00  0.00    +0.030 A 
ENDROOT
BRANCH   1   7
ATOM      7  S   LIG    1        0.851  -0.589  -1.490  0.00  0.00    -0.120 S 
BRANCH   7   9
ATOM      8  C   LIG    1       -0.019   1.526   0.010  0.00  0.00    +0.080 C 
ATOM      9  C   LIG    1        0.002  -0.004   0.002  0.00  0.00    +0.070 C 
ENDBRANCH   7   9
ENDBRANCH   1   7
BRANCH   4  10
ATOM     10  C   LIG    1        0.598  -6.594  -0.931  0.00  0.00    +0.060 C 
BRANCH  10  11
ATOM     11  C   LIG    1       -0.676  -7.115  -1.599  0.00  0.00    -0.020 C 
ATOM     12  C   LIG    1       -0.803  -8.619  -1.350  0.00  0.00    +0.020 C 
ATOM     13  C   LIG    1       -0.607  -6.851  -3.105  0.00  0.00    +0.010 C 
ENDBRANCH  10  11
ENDBRANCH   4  10
TORSDOF 4
ENDMDL
MODEL      337
REMARK  Name = ZINC000078819847
REMARK                            x       y       z     vdW  Elec       q    Type
REMARK                         _______ _______ _______ _____ _____    ______ ____
ROOT
ATOM      1  C   LIG    1       -1.477  -2.380   0.003  0.00  0.00    -0.080 A 
ATOM      2  C   LIG    1       -0.197  -2.919  -0.006  0.00  0.00    -0.020 A 
ATOM      3  C   LIG    1       -0.026  -4.289  -0.015  0.00  0.00    +0.030 A 
ATOM      4  C   LIG    1       -1.128  -5.125  -0.015  0.00  0.00    +0.000 A 
ATOM      5  C   LIG    1       -2.405  -4.592  -0.006  0.00  0.00    -0.060 A 
ATOM      6  C   LIG    1       -2.583  -3.223   0.009  0.00  0.00    +0.030 A 
ENDROOT
BRANCH   5   7
ATOM      7  C   LIG    1       -3.602  -5.506  -0.007  0.00  0.00    +0.020 C 
ATOM      8  C   LIG    1       -3.564  -6.397   1.237  0.00  0.00    +0.030 C 
ATOM      9  C   LIG    1       -3.575  -6.382  -1.261  0.00  0.00    +0.030 C 
ENDBRANCH   5   7
BRANCH   1  10
ATOM     10  S   LIG    1       -1.700  -0.632   0.015  0.00  0.00    -0.120 S 
BRANCH  10  12
ATOM     11  C   LIG    1       -0.019   1.526   0.010  0.00  0.00    +0.080 C 
ATOM     12  C   LIG    1        0.002  -0.004   0.002  0.00  0.00    +0.070 C 
ENDBRANCH  10  12
ENDBRANCH   1  10
TORSDOF 3
ENDMDL
MODEL      338
REMARK  Name = ZINC000095729678
REMARK                            x       y       z     vdW  Elec       q    Type
REMARK                         _______ _______ _______ _____ _____    ______ ____
ROOT
ATOM      1  C   LIG    1       -1.477  -2.380   0.003  0.00  0.00    -0.200 A 
ATOM      2  C   LIG    1       -2.467  -3.285   0.003  0.00  0.00    +0.040 A 
ATOM      3  C   LIG    1       -2.044  -4.606  -0.007  0.00  0.00    +0.060 A 
ATOM      4  C   LIG    1       -0.721  -4.773  -0.015  0.00  0.00    -0.150 A 
ATOM      5 CL   LIG    1        0.092  -6.306  -0.028  0.00  0.00    -0.010 Cl
ATOM      6  S   LIG    1        0.076  -3.205  -0.017  0.00  0.00    +0.160 S 
ENDROOT
BRANCH   1   7
ATOM      7  S   LIG    1       -1.700  -0.632   0.015  0.00  0.00    -0.040 S 
BRANCH   7   9
ATOM      8  C   LIG    1       -0.019   1.526   0.010  0.00  0.00    +0.080 C 
ATOM      9  C   LIG    1        0.002  -0.004   0.002  0.00  0.00    +0.050 C 
ENDBRANCH   7   9
ENDBRANCH   1   7
TORSDOF 2
ENDMDL
MODEL      339
REMARK  Name = ZINC000095729726
REMARK                            x       y       z     vdW  Elec       q    Type
REMARK                         _______ _______ _______ _____ _____    ______ ____
ROOT
ATOM      1  C   LIG    1        0.802  -2.356   1.291  0.00  0.00    -0.080 A 
ATOM      2  C   LIG    1        0.168  -2.915   0.188  0.00  0.00    +0.000 A 
ATOM      3  C   LIG    1        0.109  -4.288   0.049  0.00  0.00    +0.050 A 
ATOM      4  C   LIG    1        0.681  -5.107   1.006  0.00  0.00    -0.080 A 
ATOM      5  C   LIG    1        1.314  -4.554   2.105  0.00  0.00    -0.020 A 
ATOM      6 CL   LIG    1        2.031  -5.586   3.303  0.00  0.00    -0.060 Cl
ATOM      7  C   LIG    1        0.614  -6.604   0.850  0.00  0.00    +0.100 C 
ATOM      8  C   LIG    1        1.381  -3.181   2.248  0.00  0.00    +0.050 A 
ENDROOT
BRANCH   1   9
ATOM      9  S   LIG    1        0.879  -0.605   1.472  0.00  0.00    -0.110 S 
BRANCH   9  11
ATOM     10  C   LIG    1       -0.019   1.526   0.010  0.00  0.00    +0.080 C 
ATOM     11  C   LIG    1        0.002  -0.004   0.002  0.00  0.00    +0.070 C 
ENDBRANCH   9  11
ENDBRANCH   1   9
TORSDOF 2
ENDMDL
MODEL      340
REMARK  Name = ZINC000408734589
REMARK                            x       y       z     vdW  Elec       q    Type
REMARK                         _______ _______ _______ _____ _____    ______ ____
ROOT
ATOM      1  C   LIG    1        0.718  -0.497  -1.257  0.00  0.00    +0.090 C 
ATOM      2  C   LIG    1       -0.068  -0.082  -2.464  0.00  0.00    -0.120 C 
ATOM      3  C   LIG    1       -0.814  -0.917  -3.148  0.00  0.00    +0.120 C 
ATOM      4  N   LIG    1       -0.914  -2.255  -2.793  0.00  0.00    -0.670 N 
ATOM      5  H   LIG    1       -1.645  -2.796  -3.130  0.00  0.00    +0.410 HD
ATOM      6  C   LIG    1        0.044  -2.818  -1.946  0.00  0.00    +0.190 A 
ATOM      7  C   LIG    1        0.178  -4.197  -1.865  0.00  0.00    -0.050 A 
ATOM      8  C   LIG    1        1.131  -4.748  -1.030  0.00  0.00    +0.030 A 
ATOM      9  C   LIG    1        1.949  -3.926  -0.278  0.00  0.00    -0.040 A 
ATOM     10  C   LIG    1        1.816  -2.552  -0.356  0.00  0.00    +0.040 A 
ATOM     11  C   LIG    1       -1.579  -0.413  -4.345  0.00  0.00    +0.110 C 
ATOM     12  C   LIG    1        0.862  -1.993  -1.188  0.00  0.00    -0.130 A 
ENDROOT
BRANCH   1  14
ATOM     13  C   LIG    1       -0.019   1.526   0.010  0.00  0.00    +0.010 C 
ATOM     14  C   LIG    1        0.002  -0.004   0.002  0.00  0.00    +0.010 C 
ENDBRANCH   1  14
TORSDOF 1
ENDMDL
MODEL      341
REMARK  Name = ZINC000002389869
REMARK                            x       y       z     vdW  Elec       q    Type
REMARK                         _______ _______ _______ _____ _____    ______ ____
ROOT
ATOM      1  C   LIG    1       -1.413  -2.059   0.130  0.00  0.00    +0.000 C 
ENDROOT
BRANCH   1   2
ATOM      2  C   LIG    1       -1.433  -0.534   0.013  0.00  0.00    -0.020 C 
ATOM      3  C   LIG    1       -2.135  -0.131  -1.286  0.00  0.00    +0.010 C 
BRANCH   2   5
ATOM      4  C   LIG    1       -0.019   1.526   0.010  0.00  0.00    +0.000 C 
ATOM      5  C   LIG    1        0.002  -0.004   0.002  0.00  0.00    +0.000 C 
ENDBRANCH   2   5
ENDBRANCH   1   2
BRANCH   1   6
ATOM      6  C   LIG    1       -2.846  -2.579   0.267  0.00  0.00    +0.000 C 
BRANCH   6   7
ATOM      7  C   LIG    1       -2.826  -4.104   0.384  0.00  0.00    -0.020 C 
ATOM      8  C   LIG    1       -2.298  -4.709  -0.919  0.00  0.00    +0.010 C 
BRANCH   7   9
ATOM      9  C   LIG    1       -4.244  -4.614   0.645  0.00  0.00    +0.000 C 
ATOM     10  C   LIG    1       -4.207  -6.125   0.886  0.00  0.00    +0.000 C 
ENDBRANCH   7   9
ENDBRANCH   6   7
ENDBRANCH   1   6
TORSDOF 5
ENDMDL
MODEL      342
REMARK  Name = ZINC000005421241
REMARK                            x       y       z     vdW  Elec       q    Type
REMARK                         _______ _______ _______ _____ _____    ______ ____
ROOT
ATOM      1  C   LIG    1       -2.851  -2.587  -0.110  0.00  0.00    +0.020 C 
ATOM      2  C   LIG    1       -3.591  -2.080  -1.350  0.00  0.00    +0.040 C 
ENDROOT
BRANCH   1   3
ATOM      3  C   LIG    1       -2.831  -4.094  -0.119  0.00  0.00    -0.030 A 
ATOM      4  C   LIG    1       -2.230  -4.790  -1.157  0.00  0.00    -0.040 A 
ATOM      5  C   LIG    1       -2.231  -6.172  -1.130  0.00  0.00    +0.260 A 
ATOM      6  N   LIG    1       -2.794  -6.827  -0.134  0.00  0.00    -0.490 NA
ATOM      7  C   LIG    1       -3.374  -6.198   0.870  0.00  0.00    +0.260 A 
ATOM      8  C   LIG    1       -3.407  -4.817   0.915  0.00  0.00    -0.040 A 
ENDBRANCH   1   3
BRANCH   1   9
ATOM      9  C   LIG    1       -1.416  -2.058  -0.121  0.00  0.00    +0.030 C 
BRANCH   9  10
ATOM     10  C   LIG    1       -1.433  -0.534   0.013  0.00  0.00    +0.010 C 
BRANCH  10  12
ATOM     11  C   LIG    1       -0.019   1.526   0.010  0.00  0.00    +0.000 C 
ATOM     12  C   LIG    1        0.002  -0.004   0.002  0.00  0.00    -0.030 C 
ATOM     13  C   LIG    1        0.742  -0.511   1.242  0.00  0.00    +0.010 C 
ENDBRANCH  10  12
ENDBRANCH   9  10
ENDBRANCH   1   9
TORSDOF 4
ENDMDL
MODEL      343
REMARK  Name = ZINC000001699276
REMARK                            x       y       z     vdW  Elec       q    Type
REMARK                         _______ _______ _______ _____ _____    ______ ____
ROOT
ATOM      1  C   LIG    1       -1.413  -2.059   0.130  0.00  0.00    -0.010 C 
ATOM      2  C   LIG    1       -0.711  -2.461   1.429  0.00  0.00    +0.000 C 
ATOM      3  C   LIG    1       -0.691  -3.987   1.546  0.00  0.00    +0.000 C 
ATOM      4  C   LIG    1       -2.127  -4.516   1.557  0.00  0.00    +0.000 C 
ATOM      5  C   LIG    1       -2.829  -4.114   0.258  0.00  0.00    +0.000 C 
ATOM      6  C   LIG    1       -2.849  -2.589   0.141  0.00  0.00    +0.000 C 
ENDROOT
BRANCH   1   7
ATOM      7  C   LIG    1       -1.433  -0.534   0.013  0.00  0.00    -0.020 C 
ATOM      8  C   LIG    1       -2.135  -0.131  -1.286  0.00  0.00    +0.020 C 
BRANCH   7  10
ATOM      9  C   LIG    1       -0.019   1.526   0.010  0.00  0.00    +0.000 C 
ATOM     10  C   LIG    1        0.002  -0.004   0.002  0.00  0.00    +0.000 C 
ENDBRANCH   7  10
ENDBRANCH   1   7
TORSDOF 2
ENDMDL
MODEL      344
REMARK  Name = ZINC000001592367
REMARK                            x       y       z     vdW  Elec       q    Type
REMARK                         _______ _______ _______ _____ _____    ______ ____
ROOT
ATOM      1  C   LIG    1       -2.221  -1.848  -0.311  0.00  0.00    +0.010 C 
ENDROOT
BRANCH   1   2
ATOM      2  C   LIG    1       -2.670  -0.421  -0.632  0.00  0.00    -0.020 C 
ATOM      3  C   LIG    1       -3.483  -0.422  -1.929  0.00  0.00    +0.020 C 
BRANCH   2   5
ATOM      4  C   LIG    1       -1.890   1.924  -0.998  0.00  0.00    +0.000 C 
ATOM      5  C   LIG    1       -1.442   0.474  -0.801  0.00  0.00    +0.000 C 
ENDBRANCH   2   5
ENDBRANCH   1   2
BRANCH   1   6
ATOM      6  C   LIG    1       -3.447  -2.716  -0.019  0.00  0.00    +0.040 C 
BRANCH   6   7
ATOM      7  C   LIG    1       -3.005  -4.121   0.297  0.00  0.00    -0.060 C 
ATOM      8  C   LIG    1       -3.318  -4.663   1.448  0.00  0.00    -0.140 C 
ATOM      9  C   LIG    1       -2.992  -6.110   1.713  0.00  0.00    +0.070 C 
ATOM     10  C   LIG    1       -4.005  -3.839   2.507  0.00  0.00    +0.070 C 
ENDBRANCH   6   7
ENDBRANCH   1   6
TORSDOF 4
ENDMDL
MODEL      345
REMARK  Name = ZINC000002563453
REMARK                            x       y       z     vdW  Elec       q    Type
REMARK                         _______ _______ _______ _____ _____    ______ ____
ROOT
ATOM      1  C   LIG    1       -1.439  -2.047  -0.103  0.00  0.00    -0.010 C 
ATOM      2  C   LIG    1       -0.907  -2.427   1.280  0.00  0.00    +0.020 C 
ENDROOT
BRANCH   1   3
ATOM      3  C   LIG    1       -1.373  -0.529  -0.276  0.00  0.00    -0.020 C 
ATOM      4  C   LIG    1       -1.999  -0.140  -1.617  0.00  0.00    +0.010 C 
BRANCH   3   6
ATOM      5  C   LIG    1        0.149   1.453  -0.292  0.00  0.00    +0.010 C 
ATOM      6  C   LIG    1        0.088  -0.075  -0.245  0.00  0.00    +0.000 C 
ENDBRANCH   3   6
ENDBRANCH   1   3
BRANCH   1   7
ATOM      7  C   LIG    1       -2.891  -2.513  -0.237  0.00  0.00    -0.020 C 
ATOM      8  C   LIG    1       -3.737  -1.867   0.862  0.00  0.00    +0.020 C 
BRANCH   7   9
ATOM      9  C   LIG    1       -2.953  -4.035  -0.100  0.00  0.00    +0.000 C 
ATOM     10  C   LIG    1       -4.383  -4.513  -0.358  0.00  0.00    +0.000 C 
ENDBRANCH   7   9
ENDBRANCH   1   7
TORSDOF 4
ENDMDL
MODEL      346
REMARK  Name = ZINC000036179731
REMARK                            x       y       z     vdW  Elec       q    Type
REMARK                         _______ _______ _______ _____ _____    ______ ____
ROOT
ATOM      1  C   LIG    1       -2.680  -2.786  -0.135  0.00  0.00    -0.170 A 
ATOM      2  C   LIG    1       -3.901  -2.111  -0.033  0.00  0.00    +0.080 A 
ATOM      3  C   LIG    1       -5.082  -2.823  -0.048  0.00  0.00    +0.010 A 
ATOM      4  C   LIG    1       -5.062  -4.202  -0.163  0.00  0.00    +0.060 A 
ATOM      5  C   LIG    1       -3.860  -4.879  -0.264  0.00  0.00    +0.010 A 
ATOM      6  C   LIG    1       -2.668  -4.181  -0.257  0.00  0.00    +0.010 A 
ATOM      7 CL   LIG    1       -1.160  -5.031  -0.384  0.00  0.00    -0.030 Cl
ENDROOT
BRANCH   1   8
ATOM      8  C   LIG    1       -1.416  -2.035  -0.119  0.00  0.00    +0.390 C 
ATOM      9  O   LIG    1       -0.360  -2.623  -0.213  0.00  0.00    -0.420 OA
BRANCH   8  10
ATOM     10  C   LIG    1       -1.433  -0.534   0.013  0.00  0.00    +0.040 C 
BRANCH  10  12
ATOM     11  C   LIG    1       -0.019   1.526   0.010  0.00  0.00    +0.020 C 
ATOM     12  C   LIG    1        0.002  -0.004   0.002  0.00  0.00    -0.010 C 
ATOM     13  C   LIG    1        0.742  -0.511   1.242  0.00  0.00    +0.010 C 
ENDBRANCH  10  12
ENDBRANCH   8  10
ENDBRANCH   1   8
TORSDOF 3
ENDMDL
MODEL      347
REMARK  Name = ZINC000013162894
REMARK                            x       y       z     vdW  Elec       q    Type
REMARK                         _______ _______ _______ _____ _____    ______ ____
ROOT
ATOM      1  C   LIG    1        1.236  -2.507  -2.647  0.00  0.00    +0.030 C 
ATOM      2  C   LIG    1        0.389  -1.998  -3.815  0.00  0.00    +0.040 C 
ENDROOT
BRANCH   1   3
ATOM      3  C   LIG    1        1.262  -4.014  -2.665  0.00  0.00    -0.030 A 
ATOM      4  C   LIG    1        0.088  -4.745  -2.565  0.00  0.00    -0.040 A 
ATOM      5  C   LIG    1        0.150  -6.126  -2.585  0.00  0.00    +0.260 A 
ATOM      6  N   LIG    1        1.308  -6.747  -2.697  0.00  0.00    -0.490 NA
ATOM      7  C   LIG    1        2.444  -6.084  -2.795  0.00  0.00    +0.260 A 
ATOM      8  C   LIG    1        2.459  -4.702  -2.788  0.00  0.00    -0.040 A 
ENDBRANCH   1   3
BRANCH   1   9
ATOM      9  C   LIG    1        0.630  -2.023  -1.329  0.00  0.00    +0.020 C 
BRANCH   9  10
ATOM     10  C   LIG    1        0.718  -0.497  -1.257  0.00  0.00    -0.020 C 
ATOM     11  C   LIG    1        2.187  -0.073  -1.207  0.00  0.00    +0.020 C 
BRANCH  10  13
ATOM     12  C   LIG    1       -0.019   1.526   0.010  0.00  0.00    +0.000 C 
ATOM     13  C   LIG    1        0.002  -0.004   0.002  0.00  0.00    +0.000 C 
ENDBRANCH  10  13
ENDBRANCH   9  10
ENDBRANCH   1   9
TORSDOF 4
ENDMDL
MODEL      348
REMARK  Name = ZINC000013162899
REMARK                            x       y       z     vdW  Elec       q    Type
REMARK                         _______ _______ _______ _____ _____    ______ ____
ROOT
ATOM      1  C   LIG    1        1.188  -2.352  -2.699  0.00  0.00    +0.030 C 
ATOM      2  C   LIG    1        2.704  -2.150  -2.677  0.00  0.00    +0.030 C 
ENDROOT
BRANCH   1   3
ATOM      3  C   LIG    1        0.877  -3.785  -3.049  0.00  0.00    -0.030 A 
ATOM      4  C   LIG    1        1.327  -4.824  -2.249  0.00  0.00    -0.040 A 
ATOM      5  C   LIG    1        1.023  -6.125  -2.601  0.00  0.00    +0.250 A 
ATOM      6  N   LIG    1        0.315  -6.383  -3.683  0.00  0.00    -0.490 NA
ATOM      7  C   LIG    1       -0.129  -5.421  -4.467  0.00  0.00    +0.250 A 
ATOM      8  C   LIG    1        0.130  -4.095  -4.175  0.00  0.00    -0.040 A 
ENDBRANCH   1   3
BRANCH   1   9
ATOM      9  C   LIG    1        0.609  -2.027  -1.321  0.00  0.00    +0.030 C 
BRANCH   9  10
ATOM     10  C   LIG    1       -0.918  -2.096  -1.379  0.00  0.00    -0.020 C 
ATOM     11  C   LIG    1       -1.444  -0.986  -2.291  0.00  0.00    +0.010 C 
BRANCH  10  13
ATOM     12  C   LIG    1       -3.008  -2.109  -0.011  0.00  0.00    +0.010 C 
ATOM     13  C   LIG    1       -1.491  -1.916   0.028  0.00  0.00    +0.000 C 
ENDBRANCH  10  13
ENDBRANCH   9  10
ENDBRANCH   1   9
TORSDOF 4
ENDMDL
MODEL      349
REMARK  Name = ZINC000037504460
REMARK                            x       y       z     vdW  Elec       q    Type
REMARK                         _______ _______ _______ _____ _____    ______ ____
ROOT
ATOM      1  C   LIG    1       -0.016   1.357   0.009  0.00  0.00    -0.020 A 
ATOM      2  C   LIG    1        1.168   2.091   0.002  0.00  0.00    +0.020 A 
ATOM      3  C   LIG    1        2.378   1.468  -0.013  0.00  0.00    -0.010 A 
ATOM      4  C   LIG    1        2.437   0.063  -0.021  0.00  0.00    +0.000 A 
ATOM      5  C   LIG    1        3.668  -0.613  -0.035  0.00  0.00    -0.090 A 
ATOM      6  C   LIG    1        3.685  -1.990  -0.043  0.00  0.00    +0.220 A 
ATOM      7  C   LIG    1        2.490  -2.720  -0.035  0.00  0.00    -0.050 A 
ATOM      8  C   LIG    1        1.286  -2.088  -0.021  0.00  0.00    +0.070 A 
ATOM      9  C   LIG    1        1.232  -0.683  -0.013  0.00  0.00    -0.100 A 
ATOM     10  C   LIG    1        0.002  -0.004   0.002  0.00  0.00    +0.030 A 
ENDROOT
BRANCH   6  11
ATOM     11  N   LIG    1        4.907  -2.666  -0.057  0.00  0.00    -0.740 N 
ATOM     12  H   LIG    1        5.738  -2.165  -0.062  0.00  0.00    +0.400 HD
BRANCH  11  13
ATOM     13  C   LIG    1        4.934  -4.130  -0.064  0.00  0.00    +0.270 C 
BRANCH  13  14
ATOM     14  C   LIG    1        6.385  -4.614  -0.080  0.00  0.00    -0.060 C 
ATOM     15  C   LIG    1        6.876  -5.415   1.128  0.00  0.00    +0.020 C 
ATOM     16  C   LIG    1        6.627  -6.119  -0.208  0.00  0.00    +0.030 C 
ENDBRANCH  13  14
ENDBRANCH  11  13
ENDBRANCH   6  11
TORSDOF 3
ENDMDL
MODEL      350
REMARK  Name = ZINC000002526992
REMARK                            x       y       z     vdW  Elec       q    Type
REMARK                         _______ _______ _______ _____ _____    ______ ____
ROOT
ATOM      1  C   LIG    1       -0.017   1.365   0.009  0.00  0.00    +0.220 A 
ATOM      2  C   LIG    1        1.239   1.840   0.000  0.00  0.00    -0.050 A 
ATOM      3  C   LIG    1        2.136   0.681  -0.015  0.00  0.00    -0.110 A 
ATOM      4  C   LIG    1        3.525   0.533  -0.029  0.00  0.00    +0.060 A 
ATOM      5  C   LIG    1        4.076  -0.715  -0.042  0.00  0.00    +0.000 A 
ATOM      6  C   LIG    1        3.259  -1.850  -0.040  0.00  0.00    -0.010 A 
ATOM      7  C   LIG    1        1.876  -1.720  -0.025  0.00  0.00    +0.000 A 
ATOM      8  C   LIG    1        1.304  -0.454  -0.013  0.00  0.00    +0.100 A 
ATOM      9  N   LIG    1        0.002  -0.004   0.002  0.00  0.00    -0.600 N 
ATOM     10  H   LIG    1       -0.784  -0.572   0.006  0.00  0.00    +0.420 HD
ENDROOT
BRANCH   6  11
ATOM     11  C   LIG    1        3.873  -3.200  -0.054  0.00  0.00    -0.060 A 
ATOM     12  C   LIG    1        3.143  -4.332  -0.060  0.00  0.00    -0.050 A 
ATOM     13  S   LIG    1        4.218  -5.723  -0.076  0.00  0.00    +0.110 S 
ATOM     14  C   LIG    1        5.631  -4.678  -0.075  0.00  0.00    -0.040 A 
ATOM     15  C   LIG    1        5.251  -3.402  -0.069  0.00  0.00    +0.010 A 
ENDBRANCH   6  11
TORSDOF 1
ENDMDL
MODEL      351
REMARK  Name = ZINC000034528541
REMARK                            x       y       z     vdW  Elec       q    Type
REMARK                         _______ _______ _______ _____ _____    ______ ____
ROOT
ATOM      1  C   LIG    1       -2.616  -2.706  -0.130  0.00  0.00    +0.220 A 
ATOM      2  C   LIG    1       -3.832  -2.020  -0.027  0.00  0.00    -0.050 A 
ATOM      3  C   LIG    1       -5.015  -2.688  -0.039  0.00  0.00    +0.070 A 
ATOM      4  C   LIG    1       -5.027  -4.089  -0.156  0.00  0.00    -0.100 A 
ATOM      5  C   LIG    1       -6.236  -4.807  -0.172  0.00  0.00    +0.030 A 
ATOM      6  C   LIG    1       -6.213  -6.163  -0.287  0.00  0.00    -0.020 A 
ATOM      7  C   LIG    1       -5.007  -6.855  -0.389  0.00  0.00    +0.020 A 
ATOM      8  C   LIG    1       -3.818  -6.194  -0.377  0.00  0.00    -0.010 A 
ATOM      9  C   LIG    1       -3.801  -4.793  -0.261  0.00  0.00    +0.000 A 
ATOM     10  C   LIG    1       -2.592  -4.079  -0.251  0.00  0.00    -0.090 A 
ENDROOT
BRANCH   1  11
ATOM     11  N   LIG    1       -1.416  -1.993  -0.116  0.00  0.00    -0.750 N 
ATOM     12  H   LIG    1       -0.572  -2.463  -0.190  0.00  0.00    +0.400 HD
BRANCH  11  13
ATOM     13  C   LIG    1       -1.433  -0.534   0.013  0.00  0.00    +0.250 C 
BRANCH  13  15
ATOM     14  C   LIG    1       -0.019   1.526   0.010  0.00  0.00    +0.030 C 
ATOM     15  C   LIG    1        0.002  -0.004   0.002  0.00  0.00    -0.030 C 
ATOM     16  C   LIG    1        0.742  -0.511   1.242  0.00  0.00    +0.020 C 
ENDBRANCH  13  15
ENDBRANCH  11  13
ENDBRANCH   1  11
TORSDOF 3
ENDMDL
MODEL      352
REMARK  Name = ZINC000071785243
REMARK                            x       y       z     vdW  Elec       q    Type
REMARK                         _______ _______ _______ _____ _____    ______ ____
ROOT
ATOM      1  C   LIG    1       -0.017   1.375   0.010  0.00  0.00    +0.000 A 
ATOM      2  C   LIG    1        1.173   2.080   0.002  0.00  0.00    +0.000 A 
ATOM      3  C   LIG    1        2.372   1.397  -0.008  0.00  0.00    +0.000 A 
ATOM      4  C   LIG    1        2.391   0.009  -0.014  0.00  0.00    -0.070 A 
ATOM      5  C   LIG    1        1.208  -0.694  -0.014  0.00  0.00    -0.070 A 
ATOM      6  C   LIG    1        1.151  -2.199  -0.044  0.00  0.00    +0.070 C 
ATOM      7  C   LIG    1        2.504  -2.802   0.329  0.00  0.00    +0.020 C 
ATOM      8  C   LIG    1        3.583  -2.111  -0.506  0.00  0.00    -0.010 C 
ATOM      9  C   LIG    1        4.906  -2.860  -0.401  0.00  0.00    +0.010 C 
ATOM     10  C   LIG    1        5.413  -2.833   1.042  0.00  0.00    +0.000 C 
ATOM     11  C   LIG    1        5.606  -1.377   1.476  0.00  0.00    +0.000 C 
ATOM     12  C   LIG    1        4.261  -0.652   1.412  0.00  0.00    +0.020 C 
ATOM     13  C   LIG    1        3.738  -0.676  -0.012  0.00  0.00    +0.040 C 
ATOM     14  C   LIG    1        0.002  -0.004   0.002  0.00  0.00    +0.000 A 
ENDROOT
TORSDOF 0
ENDMDL
MODEL      353
REMARK  Name = ZINC000001743767
REMARK                            x       y       z     vdW  Elec       q    Type
REMARK                         _______ _______ _______ _____ _____    ______ ____
ROOT
ATOM      1  C   LIG    1       -0.017   1.377   0.010  0.00  0.00    +0.020 A 
ATOM      2  C   LIG    1        1.171   2.085   0.002  0.00  0.00    +0.010 A 
ATOM      3  C   LIG    1        2.373   1.412  -0.013  0.00  0.00    +0.030 A 
ATOM      4  C   LIG    1        2.400   0.012  -0.021  0.00  0.00    -0.040 A 
ATOM      5  C   LIG    1        1.204  -0.693  -0.013  0.00  0.00    -0.080 A 
ATOM      6  C   LIG    1        1.157  -2.198  -0.018  0.00  0.00    +0.150 C 
ATOM      7  S   LIG    1        2.475  -2.851  -1.080  0.00  0.00    -0.110 S 
ATOM      8  C   LIG    1        3.884  -1.957  -0.511  0.00  0.00    -0.090 A 
ATOM      9  C   LIG    1        5.139  -2.545  -0.534  0.00  0.00    +0.040 A 
ATOM     10  C   LIG    1        6.238  -1.839  -0.082  0.00  0.00    +0.030 A 
ATOM     11  C   LIG    1        6.088  -0.548   0.395  0.00  0.00    +0.020 A 
ATOM     12  C   LIG    1        4.843   0.047   0.420  0.00  0.00    +0.030 A 
ATOM     13  C   LIG    1        3.725  -0.651  -0.037  0.00  0.00    -0.040 A 
ATOM     14  C   LIG    1        0.002  -0.004   0.002  0.00  0.00    +0.020 A 
ENDROOT
TORSDOF 0
ENDMDL
MODEL      354
REMARK  Name = ZINC000005105344
REMARK                            x       y       z     vdW  Elec       q    Type
REMARK                         _______ _______ _______ _____ _____    ______ ____
ROOT
ATOM      1  C   LIG    1       -0.016   1.360   0.009  0.00  0.00    +0.030 A 
ATOM      2  C   LIG    1        1.163   2.092   0.002  0.00  0.00    +0.000 A 
ATOM      3  C   LIG    1        2.382   1.448  -0.013  0.00  0.00    +0.040 A 
ATOM      4  C   LIG    1        2.423   0.058  -0.021  0.00  0.00    -0.120 A 
ATOM      5  C   LIG    1        1.227  -0.692  -0.013  0.00  0.00    +0.090 A 
ATOM      6  N   LIG    1        1.524  -1.998  -0.023  0.00  0.00    -0.470 NA
ATOM      7  C   LIG    1        2.848  -2.236  -0.037  0.00  0.00    +0.150 A 
ATOM      8  C   LIG    1        3.476  -3.497  -0.050  0.00  0.00    +0.070 A 
ATOM      9  C   LIG    1        4.809  -3.703  -0.064  0.00  0.00    +0.060 A 
ATOM     10  S   LIG    1        5.810  -2.231  -0.065  0.00  0.00    +0.130 S 
ATOM     11  C   LIG    1        4.886  -0.768  -0.049  0.00  0.00    +0.120 A 
ATOM     12  C   LIG    1        3.512  -0.937  -0.036  0.00  0.00    -0.140 A 
ATOM     13  C   LIG    1        0.002  -0.004   0.002  0.00  0.00    +0.040 A 
ENDROOT
TORSDOF 0
ENDMDL
MODEL      355
REMARK  Name = ZINC000026893375
REMARK                            x       y       z     vdW  Elec       q    Type
REMARK                         _______ _______ _______ _____ _____    ______ ____
ROOT
ATOM      1  C   LIG    1        0.667   0.206  -3.527  0.00  0.00    +0.140 A 
ATOM      2  C   LIG    1        0.005   0.683  -4.649  0.00  0.00    +0.000 A 
ATOM      3  C   LIG    1        0.721   1.017  -5.783  0.00  0.00    +0.070 A 
ATOM      4  C   LIG    1        2.097   0.875  -5.800  0.00  0.00    -0.080 A 
ATOM      5  C   LIG    1        2.759   0.399  -4.681  0.00  0.00    +0.070 A 
ATOM      6 CL   LIG    1        2.994   1.294  -7.225  0.00  0.00    -0.070 Cl
ATOM      7  C   LIG    1        2.047   0.070  -3.544  0.00  0.00    -0.060 A 
ENDROOT
BRANCH   1   8
ATOM      8  O   LIG    1       -0.036  -0.123  -2.412  0.00  0.00    -0.300 OA
BRANCH   8   9
ATOM      9  C   LIG    1        0.718  -0.490  -1.254  0.00  0.00    +0.160 C 
ATOM     10  C   LIG    1        1.075  -1.976  -1.327  0.00  0.00    +0.020 C 
BRANCH   9  12
ATOM     11  C   LIG    1       -0.365   1.277   0.141  0.00  0.00    +0.010 C 
ATOM     12  C   LIG    1       -0.114  -0.226   0.002  0.00  0.00    +0.040 C 
ENDBRANCH   9  12
ENDBRANCH   8   9
ENDBRANCH   1   8
TORSDOF 3
ENDMDL
MODEL      356
REMARK  Name = ZINC000002526978
REMARK                            x       y       z     vdW  Elec       q    Type
REMARK                         _______ _______ _______ _____ _____    ______ ____
ROOT
ATOM      1  C   LIG    1        1.525  -2.000  -0.023  0.00  0.00    -0.050 A 
ATOM      2  C   LIG    1        0.473  -2.925  -0.023  0.00  0.00    +0.050 A 
ATOM      3  C   LIG    1        0.725  -4.266  -0.032  0.00  0.00    +0.000 A 
ATOM      4  C   LIG    1        2.036  -4.733  -0.042  0.00  0.00    +0.100 A 
ATOM      5  N   LIG    1        2.590  -5.995  -0.052  0.00  0.00    -0.600 N 
ATOM      6  H   LIG    1        2.086  -6.824  -0.054  0.00  0.00    +0.420 HD
ATOM      7  C   LIG    1        3.955  -5.905  -0.058  0.00  0.00    +0.220 A 
ATOM      8  C   LIG    1        4.329  -4.616  -0.053  0.00  0.00    -0.050 A 
ATOM      9  C   LIG    1        3.103  -3.814  -0.042  0.00  0.00    -0.110 A 
ATOM     10  C   LIG    1        2.842  -2.444  -0.038  0.00  0.00    +0.060 A 
ENDROOT
BRANCH   1  14
ATOM     11  C   LIG    1       -0.017   1.376   0.010  0.00  0.00    +0.010 A 
ATOM     12  C   LIG    1        1.185   1.958   0.001  0.00  0.00    -0.050 A 
ATOM     13  S   LIG    1        2.442   0.728  -0.017  0.00  0.00    +0.110 S 
ATOM     14  C   LIG    1        1.234  -0.550  -0.013  0.00  0.00    -0.130 A 
ATOM     15  C   LIG    1        0.002  -0.004   0.002  0.00  0.00    +0.000 A 
ENDBRANCH   1  14
TORSDOF 1
ENDMDL
MODEL      357
REMARK  Name = ZINC000039192898
REMARK                            x       y       z     vdW  Elec       q    Type
REMARK                         _______ _______ _______ _____ _____    ______ ____
ROOT
ATOM      1  C   LIG    1        0.802  -2.356   1.291  0.00  0.00    -0.070 A 
ATOM      2  C   LIG    1        1.383  -3.199   2.263  0.00  0.00    -0.030 A 
ATOM      3  C   LIG    1        2.032  -2.671   3.390  0.00  0.00    +0.030 A 
ATOM      4  C   LIG    1        2.581  -3.514   4.308  0.00  0.00    +0.020 A 
ATOM      5  C   LIG    1        2.509  -4.896   4.146  0.00  0.00    +0.020 A 
ATOM      6  C   LIG    1        1.887  -5.443   3.065  0.00  0.00    +0.020 A 
ATOM      7  C   LIG    1        1.309  -4.604   2.097  0.00  0.00    -0.040 A 
ATOM      8  C   LIG    1        0.658  -5.134   0.970  0.00  0.00    +0.020 A 
ATOM      9  C   LIG    1        0.106  -4.297   0.047  0.00  0.00    +0.030 A 
ATOM     10  C   LIG    1        0.168  -2.916   0.201  0.00  0.00    -0.010 A 
ENDROOT
BRANCH   1  11
ATOM     11  S   LIG    1        0.879  -0.605   1.472  0.00  0.00    -0.110 S 
BRANCH  11  13
ATOM     12  C   LIG    1       -0.019   1.526   0.010  0.00  0.00    +0.080 C 
ATOM     13  C   LIG    1        0.002  -0.004   0.002  0.00  0.00    +0.060 C 
ENDBRANCH  11  13
ENDBRANCH   1  11
TORSDOF 2
ENDMDL
MODEL      358
REMARK  Name = ZINC000039207069
REMARK                            x       y       z     vdW  Elec       q    Type
REMARK                         _______ _______ _______ _____ _____    ______ ____
ROOT
ATOM      1  C   LIG    1        0.802  -2.356   1.291  0.00  0.00    -0.140 A 
ATOM      2  C   LIG    1       -0.267  -3.065   1.826  0.00  0.00    -0.030 A 
ATOM      3  C   LIG    1       -0.324  -4.437   1.682  0.00  0.00    -0.010 A 
ATOM      4  C   LIG    1        0.681  -5.106   1.007  0.00  0.00    -0.050 A 
ATOM      5  C   LIG    1        1.746  -4.404   0.473  0.00  0.00    -0.010 A 
ATOM      6  C   LIG    1        0.615  -6.604   0.853  0.00  0.00    +0.090 C 
ATOM      7  C   LIG    1       -1.363  -2.337   2.561  0.00  0.00    +0.100 C 
ATOM      8  C   LIG    1        1.807  -3.031   0.608  0.00  0.00    -0.030 A 
ATOM      9  C   LIG    1        2.968  -2.266   0.026  0.00  0.00    +0.100 C 
ENDROOT
BRANCH   1  10
ATOM     10  S   LIG    1        0.879  -0.605   1.472  0.00  0.00    -0.150 S 
BRANCH  10  12
ATOM     11  C   LIG    1       -0.019   1.526   0.010  0.00  0.00    +0.070 C 
ATOM     12  C   LIG    1        0.002  -0.004   0.002  0.00  0.00    +0.060 C 
ENDBRANCH  10  12
ENDBRANCH   1  10
TORSDOF 2
ENDMDL
MODEL      359
REMARK  Name = ZINC000039240518
REMARK                            x       y       z     vdW  Elec       q    Type
REMARK                         _______ _______ _______ _____ _____    ______ ____
ROOT
ATOM      1  C   LIG    1       -1.477  -2.380   0.003  0.00  0.00    -0.080 A 
ATOM      2  C   LIG    1       -0.183  -2.914  -0.006  0.00  0.00    -0.010 A 
ATOM      3  C   LIG    1        0.018  -4.258  -0.015  0.00  0.00    +0.050 A 
ATOM      4  C   LIG    1       -1.084  -5.132  -0.014  0.00  0.00    -0.060 A 
ATOM      5  C   LIG    1       -0.906  -6.526  -0.023  0.00  0.00    +0.030 A 
ATOM      6  C   LIG    1       -1.993  -7.344  -0.022  0.00  0.00    +0.000 A 
ATOM      7  C   LIG    1       -3.285  -6.822  -0.013  0.00  0.00    +0.020 A 
ATOM      8  C   LIG    1       -3.497  -5.477  -0.004  0.00  0.00    +0.020 A 
ATOM      9  C   LIG    1       -2.398  -4.600  -0.004  0.00  0.00    -0.030 A 
ATOM     10  C   LIG    1       -2.580  -3.208   0.009  0.00  0.00    +0.040 A 
ENDROOT
BRANCH   1  11
ATOM     11  S   LIG    1       -1.700  -0.632   0.015  0.00  0.00    -0.120 S 
BRANCH  11  13
ATOM     12  C   LIG    1       -0.019   1.526   0.010  0.00  0.00    +0.080 C 
ATOM     13  C   LIG    1        0.002  -0.004   0.002  0.00  0.00    +0.070 C 
ENDBRANCH  11  13
ENDBRANCH   1  11
TORSDOF 2
ENDMDL
MODEL      360
REMARK  Name = ZINC000039271247
REMARK                            x       y       z     vdW  Elec       q    Type
REMARK                         _______ _______ _______ _____ _____    ______ ____
ROOT
ATOM      1  C   LIG    1        1.816  -1.760  -0.024  0.00  0.00    +0.100 A 
ATOM      2  C   LIG    1        3.127  -2.114  -0.032  0.00  0.00    -0.010 A 
ATOM      3  C   LIG    1        3.152  -3.578  -0.041  0.00  0.00    -0.130 A 
ATOM      4  C   LIG    1        4.170  -4.533  -0.051  0.00  0.00    +0.060 A 
ATOM      5  C   LIG    1        3.850  -5.863  -0.058  0.00  0.00    +0.000 A 
ATOM      6  C   LIG    1        2.523  -6.266  -0.053  0.00  0.00    +0.050 A 
ATOM      7  C   LIG    1        1.504  -5.337  -0.044  0.00  0.00    +0.030 A 
ATOM      8  C   LIG    1        1.804  -3.981  -0.037  0.00  0.00    +0.060 A 
ATOM      9  O   LIG    1        1.045  -2.866  -0.021  0.00  0.00    -0.180 OA
ENDROOT
BRANCH   1  13
ATOM     10  C   LIG    1       -0.017   1.404   0.010  0.00  0.00    -0.050 A 
ATOM     11  C   LIG    1        1.266   1.817  -0.000  0.00  0.00    +0.190 A 
ATOM     12  O   LIG    1        2.067   0.739  -0.014  0.00  0.00    -0.160 OA
ATOM     13  C   LIG    1        1.313  -0.378  -0.013  0.00  0.00    +0.040 A 
ATOM     14  C   LIG    1        0.002  -0.004   0.002  0.00  0.00    +0.000 A 
ENDBRANCH   1  13
TORSDOF 1
ENDMDL
MODEL      361
REMARK  Name = ZINC000104334519
REMARK                            x       y       z     vdW  Elec       q    Type
REMARK                         _______ _______ _______ _____ _____    ______ ____
ROOT
ATOM      1  C   LIG    1       -1.444  -1.959  -0.181  0.00  0.00    -0.080 A 
ATOM      2  C   LIG    1       -1.348  -2.384  -1.490  0.00  0.00    +0.000 A 
ATOM      3  C   LIG    1       -1.351  -3.736  -1.775  0.00  0.00    +0.000 A 
ATOM      4  C   LIG    1       -1.454  -4.652  -0.749  0.00  0.00    -0.010 A 
ATOM      5  C   LIG    1       -1.552  -4.227   0.570  0.00  0.00    -0.070 A 
ATOM      6  C   LIG    1       -1.669  -5.281   1.640  0.00  0.00    +0.060 C 
ATOM      7  C   LIG    1       -1.335  -4.697   3.009  0.00  0.00    +0.010 C 
ATOM      8  C   LIG    1       -2.159  -3.420   3.209  0.00  0.00    +0.010 C 
ATOM      9  C   LIG    1       -1.624  -2.348   2.261  0.00  0.00    +0.070 C 
ATOM     10  C   LIG    1       -1.538  -2.880   0.854  0.00  0.00    -0.070 A 
ENDROOT
BRANCH   1  11
ATOM     11  C   LIG    1       -1.441  -0.484   0.128  0.00  0.00    +0.060 C 
BRANCH  11  13
ATOM     12  C   LIG    1       -2.880   1.476   0.703  0.00  0.00    +0.020 C 
ATOM     13  C   LIG    1       -2.882   0.014   0.251  0.00  0.00    -0.020 C 
ATOM     14  C   LIG    1       -3.578  -0.099  -1.107  0.00  0.00    +0.010 C 
ENDBRANCH  11  13
ENDBRANCH   1  11
TORSDOF 2
ENDMDL
MODEL      362
REMARK  Name = ZINC000228923141
REMARK                            x       y       z     vdW  Elec       q    Type
REMARK                         _______ _______ _______ _____ _____    ______ ____
ROOT
ATOM      1  C   LIG    1       -1.201  -0.638   0.010  0.00  0.00    +0.150 A 
ATOM      2  C   LIG    1       -2.378   0.105   0.019  0.00  0.00    -0.050 A 
ATOM      3  C   LIG    1       -3.588  -0.517   0.027  0.00  0.00    +0.110 A 
ATOM      4  C   LIG    1       -3.670  -1.926   0.026  0.00  0.00    -0.110 A 
ATOM      5  C   LIG    1       -4.848  -2.780   0.033  0.00  0.00    -0.020 A 
ATOM      6  C   LIG    1       -4.595  -4.073   0.029  0.00  0.00    -0.020 A 
ATOM      7  S   LIG    1       -2.871  -4.388   0.017  0.00  0.00    +0.140 S 
ATOM      8 CL   LIG    1       -6.463  -2.144   0.045  0.00  0.00    -0.040 Cl
ATOM      9  C   LIG    1       -2.488  -2.671   0.016  0.00  0.00    -0.100 A 
ATOM     10  C   LIG    1       -1.253  -2.016   0.003  0.00  0.00    +0.020 A 
ENDROOT
BRANCH   1  12
ATOM     11  C   LIG    1       -0.017   1.425   0.010  0.00  0.00    +0.240 C 
ATOM     12  O   LIG    1        0.002  -0.004   0.002  0.00  0.00    -0.310 OA
ENDBRANCH   1  12
TORSDOF 1
ENDMDL
MODEL      363
REMARK  Name = ZINC000045027826
REMARK                            x       y       z     vdW  Elec       q    Type
REMARK                         _______ _______ _______ _____ _____    ______ ____
ROOT
ATOM      1  C   LIG    1       -2.469  -2.814  -0.487  0.00  0.00    -0.030 C 
ATOM      2  C   LIG    1       -3.484  -2.050  -1.352  0.00  0.00    -0.110 C 
ATOM      3  C   LIG    1       -3.197  -0.565  -1.568  0.00  0.00    +0.050 C 
ATOM      4  C   LIG    1       -2.342  -0.371  -2.819  0.00  0.00    +0.010 C 
ATOM      5  C   LIG    1       -1.083  -1.236  -2.690  0.00  0.00    +0.000 C 
ATOM      6  C   LIG    1       -1.470  -2.697  -2.922  0.00  0.00    +0.060 C 
ATOM      7  C   LIG    1       -4.962  -2.401  -1.170  0.00  0.00    +0.070 C 
ATOM      8  C   LIG    1       -2.588  -3.108  -1.977  0.00  0.00    -0.090 C 
ATOM      9  C   LIG    1       -3.285  -4.420  -2.346  0.00  0.00    +0.060 C 
ENDROOT
BRANCH   1  10
ATOM     10  C   LIG    1       -1.229  -2.053  -0.014  0.00  0.00    +0.180 C 
ATOM     11  C   LIG    1        0.029  -2.777  -0.497  0.00  0.00    +0.010 C 
BRANCH  10  12
ATOM     12  O   LIG    1       -1.224  -1.991   1.414  0.00  0.00    -0.380 OA
BRANCH  12  14
ATOM     13  C   LIG    1       -0.512  -0.940   3.470  0.00  0.00    +0.040 C 
ATOM     14  C   LIG    1       -0.558  -0.843   1.944  0.00  0.00    +0.160 C 
ENDBRANCH  12  14
ENDBRANCH  10  12
ENDBRANCH   1  10
TORSDOF 3
ENDMDL
MODEL      364
REMARK  Name = ZINC000045027827
REMARK                            x       y       z     vdW  Elec       q    Type
REMARK                         _______ _______ _______ _____ _____    ______ ____
ROOT
ATOM      1  C   LIG    1       -2.748  -2.396   0.515  0.00  0.00    -0.030 C 
ATOM      2  C   LIG    1       -2.664  -3.442   1.637  0.00  0.00    -0.110 C 
ATOM      3  C   LIG    1       -1.269  -3.979   1.949  0.00  0.00    +0.050 C 
ATOM      4  C   LIG    1       -0.602  -3.120   3.023  0.00  0.00    +0.000 C 
ATOM      5  C   LIG    1       -0.618  -1.659   2.559  0.00  0.00    +0.000 C 
ATOM      6  C   LIG    1       -2.040  -1.117   2.705  0.00  0.00    +0.060 C 
ATOM      7  C   LIG    1       -3.785  -4.481   1.710  0.00  0.00    +0.070 C 
ATOM      8  C   LIG    1       -3.027  -2.001   1.959  0.00  0.00    -0.090 C 
ATOM      9  C   LIG    1       -4.495  -1.760   2.315  0.00  0.00    +0.060 C 
ENDROOT
BRANCH   1  10
ATOM     10  C   LIG    1       -1.435  -1.919  -0.108  0.00  0.00    +0.180 C 
ATOM     11  C   LIG    1       -1.425  -2.259  -1.600  0.00  0.00    +0.010 C 
BRANCH  10  12
ATOM     12  O   LIG    1       -1.314  -0.505   0.059  0.00  0.00    -0.370 OA
BRANCH  12  14
ATOM     13  C   LIG    1        0.024   1.507   0.030  0.00  0.00    +0.040 C 
ATOM     14  C   LIG    1        0.028  -0.022  -0.034  0.00  0.00    +0.150 C 
ENDBRANCH  12  14
ENDBRANCH  10  12
ENDBRANCH   1  10
TORSDOF 3
ENDMDL
MODEL      365
REMARK  Name = ZINC000072265624
REMARK                            x       y       z     vdW  Elec       q    Type
REMARK                         _______ _______ _______ _____ _____    ______ ____
ROOT
ATOM      1  C   LIG    1       -1.470  -0.420  -0.027  0.00  0.00    +0.030 C 
ENDROOT
BRANCH   1   2
ATOM      2  C   LIG    1       -1.577  -1.922  -0.097  0.00  0.00    -0.090 A 
ATOM      3  C   LIG    1       -1.045  -2.700   0.914  0.00  0.00    +0.020 A 
ATOM      4  C   LIG    1       -1.143  -4.078   0.850  0.00  0.00    +0.010 A 
ATOM      5  C   LIG    1       -1.773  -4.677  -0.225  0.00  0.00    +0.010 A 
ATOM      6  C   LIG    1       -2.305  -3.898  -1.236  0.00  0.00    +0.010 A 
ATOM      7  C   LIG    1       -2.211  -2.521  -1.170  0.00  0.00    +0.020 A 
ENDBRANCH   1   2
BRANCH   1   8
ATOM      8  C   LIG    1       -2.167   0.082   1.238  0.00  0.00    +0.460 C 
ATOM      9  F   LIG    1       -1.479  -0.381   2.365  0.00  0.00    -0.180 F 
ATOM     10  F   LIG    1       -3.482  -0.394   1.266  0.00  0.00    -0.180 F 
ATOM     11  F   LIG    1       -2.178   1.481   1.240  0.00  0.00    -0.180 F 
ENDBRANCH   1   8
BRANCH   1  13
ATOM     12  C   LIG    1        0.670  -0.395  -1.316  0.00  0.00    +0.030 C 
ATOM     13  C   LIG    1        0.005  -0.015   0.008  0.00  0.00    +0.040 C 
ENDBRANCH   1  13
TORSDOF 3
ENDMDL
MODEL      366
REMARK  Name = ZINC000070994100
REMARK                            x       y       z     vdW  Elec       q    Type
REMARK                         _______ _______ _______ _____ _____    ______ ____
ROOT
ATOM      1  C   LIG    1       -0.201  -0.007   2.531  0.00  0.00    +0.000 A 
ATOM      2  C   LIG    1        0.913   0.110   3.357  0.00  0.00    -0.060 A 
ATOM      3  C   LIG    1        0.905   1.025   4.400  0.00  0.00    +0.210 A 
ATOM      4  C   LIG    1       -0.213   1.821   4.617  0.00  0.00    -0.070 A 
ATOM      5  C   LIG    1       -1.318   1.704   3.795  0.00  0.00    +0.050 A 
ATOM      6  C   LIG    1       -1.316   0.800   2.752  0.00  0.00    -0.130 A 
ATOM      7  C   LIG    1       -2.524   0.676   1.860  0.00  0.00    +0.070 C 
ENDROOT
BRANCH   1  14
ATOM      8  C   LIG    1       -1.945  -2.313   2.640  0.00  0.00    +0.090 C 
ATOM      9  C   LIG    1       -1.034  -2.099   1.459  0.00  0.00    -0.070 A 
ATOM     10  C   LIG    1       -1.028  -3.004   0.417  0.00  0.00    +0.000 A 
ATOM     11  C   LIG    1       -0.192  -2.809  -0.667  0.00  0.00    +0.000 A 
ATOM     12  C   LIG    1        0.643  -1.707  -0.715  0.00  0.00    -0.010 A 
ATOM     13  C   LIG    1        0.645  -0.796   0.322  0.00  0.00    +0.020 A 
ATOM     14  C   LIG    1       -0.199  -0.984   1.414  0.00  0.00    -0.050 A 
ENDBRANCH   1  14
BRANCH   3  15
ATOM     15  N   LIG    1        2.021   1.146   5.232  0.00  0.00    -0.880 N 
ATOM     16  H   LIG    1        2.015   1.786   5.961  0.00  0.00    +0.400 HD
ATOM     17  H   LIG    1        2.802   0.591   5.080  0.00  0.00    +0.400 HD
ENDBRANCH   3  15
TORSDOF 2
ENDMDL
MODEL      367
REMARK  Name = ZINC000071254667
REMARK                            x       y       z     vdW  Elec       q    Type
REMARK                         _______ _______ _______ _____ _____    ______ ____
ROOT
ATOM      1  C   LIG    1       -0.018   1.503   0.010  0.00  0.00    +0.090 C 
ATOM      2  C   LIG    1        0.002  -0.004   0.002  0.00  0.00    -0.090 A 
ATOM      3  C   LIG    1        0.006  -0.687  -1.201  0.00  0.00    +0.000 A 
ATOM      4  C   LIG    1        0.025  -2.071  -1.220  0.00  0.00    +0.020 A 
ATOM      5  C   LIG    1        0.040  -2.776  -0.036  0.00  0.00    -0.070 A 
ATOM      6  C   LIG    1        0.037  -2.091   1.181  0.00  0.00    -0.050 A 
ATOM      7  C   LIG    1        0.055  -2.865   2.440  0.00  0.00    -0.010 C 
ATOM      8  C   LIG    1        0.448  -4.130   2.422  0.00  0.00    -0.020 C 
ATOM      9  C   LIG    1        0.885  -4.789   1.144  0.00  0.00    +0.070 C 
ATOM     10  C   LIG    1        0.059  -4.282  -0.036  0.00  0.00    -0.020 C 
ATOM     11  C   LIG    1        0.678  -4.782  -1.343  0.00  0.00    +0.040 C 
ATOM     12  C   LIG    1       -1.372  -4.809   0.081  0.00  0.00    +0.040 C 
ATOM     13  C   LIG    1        0.023  -0.699   1.195  0.00  0.00    +0.010 A 
ENDROOT
TORSDOF 0
ENDMDL
MODEL      368
REMARK  Name = ZINC000071256577
REMARK                            x       y       z     vdW  Elec       q    Type
REMARK                         _______ _______ _______ _____ _____    ______ ____
ROOT
ATOM      1  C   LIG    1       -0.018   1.503   0.010  0.00  0.00    +0.110 C 
ATOM      2  C   LIG    1        0.002  -0.004   0.002  0.00  0.00    -0.060 A 
ATOM      3  C   LIG    1        0.006  -0.704  -1.216  0.00  0.00    -0.040 A 
ATOM      4  C   LIG    1       -0.009  -0.025  -2.447  0.00  0.00    +0.030 A 
ATOM      5  C   LIG    1       -0.004  -0.736  -3.608  0.00  0.00    +0.020 A 
ATOM      6  C   LIG    1        0.014  -2.130  -3.596  0.00  0.00    +0.020 A 
ATOM      7  C   LIG    1        0.028  -2.820  -2.423  0.00  0.00    +0.020 A 
ATOM      8  C   LIG    1        0.025  -2.121  -1.204  0.00  0.00    -0.050 A 
ATOM      9  C   LIG    1        0.040  -2.800   0.026  0.00  0.00    +0.040 A 
ATOM     10  C   LIG    1        0.036  -2.090   1.187  0.00  0.00    +0.020 A 
ATOM     11  C   LIG    1        0.023  -0.695   1.176  0.00  0.00    -0.040 A 
ATOM     12 CL   LIG    1        0.019   0.173   2.679  0.00  0.00    -0.070 Cl
ENDROOT
TORSDOF 0
ENDMDL
MODEL      369
REMARK  Name = ZINC000071256734
REMARK                            x       y       z     vdW  Elec       q    Type
REMARK                         _______ _______ _______ _____ _____    ______ ____
ROOT
ATOM      1  C   LIG    1       -0.018   1.503   0.010  0.00  0.00    +0.100 C 
ATOM      2  C   LIG    1        0.002  -0.004   0.002  0.00  0.00    -0.080 A 
ATOM      3  C   LIG    1        0.006  -0.684  -1.215  0.00  0.00    -0.030 A 
ATOM      4  C   LIG    1        0.024  -2.046  -1.257  0.00  0.00    +0.050 A 
ATOM      5  C   LIG    1        0.041  -2.778  -0.058  0.00  0.00    -0.050 A 
ATOM      6  C   LIG    1        0.061  -4.183  -0.061  0.00  0.00    +0.030 A 
ATOM      7  C   LIG    1        0.076  -4.859   1.120  0.00  0.00    +0.020 A 
ATOM      8  C   LIG    1        0.072  -4.179   2.336  0.00  0.00    +0.020 A 
ATOM      9  C   LIG    1        0.053  -2.818   2.378  0.00  0.00    +0.020 A 
ATOM     10  C   LIG    1        0.037  -2.086   1.179  0.00  0.00    -0.050 A 
ATOM     11 CL   LIG    1       -0.014   0.217  -2.699  0.00  0.00    -0.070 Cl
ATOM     12  C   LIG    1        0.022  -0.681   1.183  0.00  0.00    +0.040 A 
ENDROOT
TORSDOF 0
ENDMDL
MODEL      370
REMARK  Name = ZINC000071256775
REMARK                            x       y       z     vdW  Elec       q    Type
REMARK                         _______ _______ _______ _____ _____    ______ ____
ROOT
ATOM      1  C   LIG    1       -0.018   1.503   0.010  0.00  0.00    +0.090 C 
ATOM      2  C   LIG    1        0.002  -0.004   0.002  0.00  0.00    -0.080 A 
ATOM      3  C   LIG    1        0.005  -0.684  -1.214  0.00  0.00    +0.020 A 
ATOM      4  C   LIG    1        0.023  -2.044  -1.257  0.00  0.00    +0.030 A 
ATOM      5  C   LIG    1        0.039  -2.777  -0.058  0.00  0.00    -0.050 A 
ATOM      6  C   LIG    1        0.058  -4.182  -0.062  0.00  0.00    +0.030 A 
ATOM      7  C   LIG    1        0.073  -4.859   1.118  0.00  0.00    +0.020 A 
ATOM      8  C   LIG    1        0.070  -4.181   2.335  0.00  0.00    +0.030 A 
ATOM      9  C   LIG    1        0.052  -2.819   2.379  0.00  0.00    -0.030 A 
ATOM     10 CL   LIG    1        0.048  -1.995   3.906  0.00  0.00    -0.060 Cl
ATOM     11  C   LIG    1        0.036  -2.086   1.179  0.00  0.00    -0.040 A 
ATOM     12  C   LIG    1        0.022  -0.681   1.183  0.00  0.00    +0.020 A 
ENDROOT
TORSDOF 0
ENDMDL
MODEL      371
REMARK  Name = ZINC000071256834
REMARK                            x       y       z     vdW  Elec       q    Type
REMARK                         _______ _______ _______ _____ _____    ______ ____
ROOT
ATOM      1  C   LIG    1       -0.018   1.503   0.010  0.00  0.00    +0.100 C 
ATOM      2  C   LIG    1        0.002  -0.004   0.002  0.00  0.00    -0.070 A 
ATOM      3  C   LIG    1        0.006  -0.704  -1.216  0.00  0.00    -0.040 A 
ATOM      4  C   LIG    1       -0.009  -0.025  -2.447  0.00  0.00    +0.040 A 
ATOM      5  C   LIG    1       -0.004  -0.736  -3.608  0.00  0.00    +0.020 A 
ATOM      6  C   LIG    1        0.015  -2.129  -3.597  0.00  0.00    +0.040 A 
ATOM      7  C   LIG    1        0.029  -2.821  -2.424  0.00  0.00    -0.030 A 
ATOM      8 CL   LIG    1        0.052  -4.556  -2.435  0.00  0.00    -0.060 Cl
ATOM      9  C   LIG    1        0.025  -2.121  -1.204  0.00  0.00    -0.040 A 
ATOM     10  C   LIG    1        0.040  -2.799   0.026  0.00  0.00    +0.020 A 
ATOM     11  C   LIG    1        0.036  -2.088   1.187  0.00  0.00    +0.030 A 
ATOM     12  C   LIG    1        0.023  -0.695   1.175  0.00  0.00    +0.020 A 
ENDROOT
TORSDOF 0
ENDMDL
MODEL      372
REMARK  Name = ZINC000071256835
REMARK                            x       y       z     vdW  Elec       q    Type
REMARK                         _______ _______ _______ _____ _____    ______ ____
ROOT
ATOM      1  C   LIG    1       -0.018   1.503   0.010  0.00  0.00    +0.090 C 
ATOM      2  C   LIG    1        0.002  -0.004   0.002  0.00  0.00    -0.080 A 
ATOM      3  C   LIG    1        0.006  -0.684  -1.214  0.00  0.00    +0.020 A 
ATOM      4  C   LIG    1        0.024  -2.044  -1.257  0.00  0.00    +0.030 A 
ATOM      5  C   LIG    1        0.041  -2.777  -0.059  0.00  0.00    -0.050 A 
ATOM      6  C   LIG    1        0.061  -4.183  -0.062  0.00  0.00    -0.020 A 
ATOM      7  C   LIG    1        0.076  -4.860   1.120  0.00  0.00    +0.020 A 
ATOM      8  C   LIG    1        0.072  -4.179   2.336  0.00  0.00    +0.020 A 
ATOM      9  C   LIG    1        0.052  -2.819   2.378  0.00  0.00    +0.030 A 
ATOM     10 CL   LIG    1        0.066  -5.052  -1.565  0.00  0.00    -0.060 Cl
ATOM     11  C   LIG    1        0.037  -2.086   1.179  0.00  0.00    -0.040 A 
ATOM     12  C   LIG    1        0.022  -0.681   1.183  0.00  0.00    +0.020 A 
ENDROOT
TORSDOF 0
ENDMDL
MODEL      373
REMARK  Name = ZINC000071256931
REMARK                            x       y       z     vdW  Elec       q    Type
REMARK                         _______ _______ _______ _____ _____    ______ ____
ROOT
ATOM      1  C   LIG    1       -0.018   1.503   0.010  0.00  0.00    +0.100 C 
ATOM      2  C   LIG    1        0.002  -0.004   0.002  0.00  0.00    -0.090 A 
ATOM      3  C   LIG    1        0.006  -0.691  -1.197  0.00  0.00    +0.000 A 
ATOM      4  C   LIG    1        0.021  -2.071  -1.197  0.00  0.00    +0.000 A 
ATOM      5  C   LIG    1        0.033  -2.776  -0.001  0.00  0.00    -0.080 A 
ATOM      6  C   LIG    1        0.035  -4.280  -0.073  0.00  0.00    +0.080 C 
ATOM      7  C   LIG    1        0.476  -4.882   1.260  0.00  0.00    -0.060 C 
ATOM      8  C   LIG    1       -0.363  -4.250   2.377  0.00  0.00    +0.030 C 
ATOM      9  C   LIG    1        0.057  -2.790   2.529  0.00  0.00    +0.070 C 
ATOM     10  C   LIG    1        1.958  -4.582   1.495  0.00  0.00    +0.020 C 
ATOM     11  C   LIG    1        0.254  -6.395   1.241  0.00  0.00    +0.040 C 
ATOM     12  C   LIG    1        0.035  -2.091   1.194  0.00  0.00    -0.070 A 
ATOM     13  C   LIG    1        0.023  -0.703   1.192  0.00  0.00    +0.000 A 
ENDROOT
TORSDOF 0
ENDMDL
MODEL      374
REMARK  Name = ZINC000071482427
REMARK                            x       y       z     vdW  Elec       q    Type
REMARK                         _______ _______ _______ _____ _____    ______ ____
ROOT
ATOM      1  C   LIG    1       -0.018   1.503   0.010  0.00  0.00    +0.100 C 
ATOM      2  C   LIG    1        0.002  -0.004   0.002  0.00  0.00    -0.050 A 
ATOM      3  C   LIG    1        0.006  -0.683  -1.214  0.00  0.00    -0.080 A 
ATOM      4  C   LIG    1        0.024  -2.045  -1.259  0.00  0.00    +0.050 A 
ATOM      5  C   LIG    1        0.040  -2.776  -0.062  0.00  0.00    -0.100 A 
ATOM      6  C   LIG    1        0.037  -2.083   1.176  0.00  0.00    -0.020 A 
ATOM      7  C   LIG    1        0.054  -2.840   2.362  0.00  0.00    +0.000 A 
ATOM      8  C   LIG    1        0.073  -4.198   2.271  0.00  0.00    +0.250 A 
ATOM      9  N   LIG    1        0.076  -4.822   1.101  0.00  0.00    -0.480 NA
ATOM     10  C   LIG    1        0.060  -4.181  -0.046  0.00  0.00    +0.210 A 
ATOM     11 CL   LIG    1        0.066  -5.069  -1.538  0.00  0.00    -0.020 Cl
ATOM     12  C   LIG    1       -0.011   0.101  -2.501  0.00  0.00    +0.110 C 
ATOM     13  C   LIG    1        0.022  -0.681   1.184  0.00  0.00    +0.030 A 
ENDROOT
TORSDOF 0
ENDMDL
MODEL      375
REMARK  Name = ZINC000100552681
REMARK                            x       y       z     vdW  Elec       q    Type
REMARK                         _______ _______ _______ _____ _____    ______ ____
ROOT
ATOM      1  C   LIG    1        0.718  -0.497  -1.257  0.00  0.00    -0.020 C 
ATOM      2  C   LIG    1        2.187  -0.073  -1.207  0.00  0.00    +0.030 C 
ATOM      3  C   LIG    1        2.904  -0.566  -2.466  0.00  0.00    +0.040 C 
ATOM      4  C   LIG    1        2.816  -2.092  -2.538  0.00  0.00    -0.020 C 
ATOM      5  C   LIG    1        1.347  -2.517  -2.587  0.00  0.00    +0.040 C 
ATOM      6  C   LIG    1        0.630  -2.023  -1.329  0.00  0.00    +0.030 C 
ENDROOT
BRANCH   4   7
ATOM      7  C   LIG    1        3.532  -2.586  -3.797  0.00  0.00    +0.450 C 
ATOM      8  F   LIG    1        2.924  -2.030  -4.927  0.00  0.00    -0.180 F 
ATOM      9  F   LIG    1        3.451  -3.981  -3.862  0.00  0.00    -0.180 F 
ATOM     10  F   LIG    1        4.875  -2.197  -3.751  0.00  0.00    -0.180 F 
ENDBRANCH   4   7
BRANCH   1  12
ATOM     11  C   LIG    1       -0.019   1.526   0.010  0.00  0.00    +0.000 C 
ATOM     12  C   LIG    1        0.002  -0.004   0.002  0.00  0.00    +0.000 C 
ENDBRANCH   1  12
TORSDOF 2
ENDMDL
MODEL      376
REMARK  Name = ZINC000071785817
REMARK                            x       y       z     vdW  Elec       q    Type
REMARK                         _______ _______ _______ _____ _____    ______ ____
ROOT
ATOM      1  C   LIG    1       -0.019   1.526   0.010  0.00  0.00    +0.050 C 
ATOM      2  C   LIG    1        0.002  -0.004   0.002  0.00  0.00    +0.020 C 
ATOM      3  C   LIG    1        1.349  -0.690  -0.234  0.00  0.00    +0.010 C 
ATOM      4  C   LIG    1        2.613   0.125  -0.104  0.00  0.00    -0.050 A 
ATOM      5  C   LIG    1        3.605   0.495  -0.960  0.00  0.00    +0.020 A 
ATOM      6  C   LIG    1        4.671   1.277  -0.509  0.00  0.00    +0.020 A 
ATOM      7  C   LIG    1        4.771   1.700   0.785  0.00  0.00    +0.020 A 
ATOM      8  C   LIG    1        3.764   1.336   1.695  0.00  0.00    -0.050 A 
ATOM      9  C   LIG    1        3.749   1.708   3.049  0.00  0.00    +0.020 A 
ATOM     10  C   LIG    1        2.712   1.293   3.834  0.00  0.00    +0.010 A 
ATOM     11  C   LIG    1        1.666   0.511   3.338  0.00  0.00    +0.020 A 
ATOM     12  C   LIG    1        1.650   0.133   2.030  0.00  0.00    -0.050 A 
ATOM     13  C   LIG    1        2.700   0.549   1.218  0.00  0.00    -0.080 A 
ATOM     14  C   LIG    1        0.702  -0.706   1.168  0.00  0.00    +0.010 C 
ENDROOT
TORSDOF 0
ENDMDL
MODEL      377
REMARK  Name = ZINC000071785793
REMARK                            x       y       z     vdW  Elec       q    Type
REMARK                         _______ _______ _______ _____ _____    ______ ____
ROOT
ATOM      1  C   LIG    1       -0.018   1.503   0.010  0.00  0.00    +0.090 C 
ATOM      2  C   LIG    1        0.002  -0.004   0.002  0.00  0.00    -0.120 C 
ATOM      3  C   LIG    1        0.007  -0.717  -1.122  0.00  0.00    -0.040 C 
ATOM      4  C   LIG    1        0.029  -2.233  -0.916  0.00  0.00    +0.080 C 
ATOM      5  C   LIG    1       -1.226  -2.556  -0.079  0.00  0.00    +0.030 C 
ATOM      6  C   LIG    1       -1.231  -1.737   1.213  0.00  0.00    +0.030 C 
ATOM      7  C   LIG    1        1.233  -2.510  -0.037  0.00  0.00    -0.080 A 
ATOM      8  C   LIG    1        2.241  -3.411  -0.234  0.00  0.00    +0.010 A 
ATOM      9  C   LIG    1        3.260  -3.541   0.702  0.00  0.00    +0.000 A 
ATOM     10  C   LIG    1        3.247  -2.786   1.860  0.00  0.00    +0.000 A 
ATOM     11  C   LIG    1        2.216  -1.887   2.104  0.00  0.00    +0.010 A 
ATOM     12  C   LIG    1        1.220  -1.765   1.180  0.00  0.00    -0.090 A 
ATOM     13  C   LIG    1        0.026  -0.837   1.285  0.00  0.00    +0.070 C 
ENDROOT
TORSDOF 0
ENDMDL
MODEL      378
REMARK  Name = ZINC000071785792
REMARK                            x       y       z     vdW  Elec       q    Type
REMARK                         _______ _______ _______ _____ _____    ______ ____
ROOT
ATOM      1  C   LIG    1       -0.018   1.503   0.010  0.00  0.00    +0.080 C 
ATOM      2  C   LIG    1        0.002  -0.004   0.002  0.00  0.00    -0.120 C 
ATOM      3  C   LIG    1        0.007  -0.717  -1.122  0.00  0.00    -0.040 C 
ATOM      4  C   LIG    1        0.029  -2.233  -0.916  0.00  0.00    +0.080 C 
ATOM      5  C   LIG    1        1.300  -2.521  -0.090  0.00  0.00    +0.030 C 
ATOM      6  C   LIG    1        1.294  -1.702   1.201  0.00  0.00    +0.030 C 
ATOM      7  C   LIG    1       -1.159  -2.543  -0.026  0.00  0.00    -0.080 A 
ATOM      8  C   LIG    1       -2.143  -3.461  -0.218  0.00  0.00    +0.010 A 
ATOM      9  C   LIG    1       -3.149  -3.616   0.728  0.00  0.00    +0.000 A 
ATOM     10  C   LIG    1       -3.144  -2.862   1.886  0.00  0.00    +0.000 A 
ATOM     11  C   LIG    1       -2.133  -1.938   2.121  0.00  0.00    +0.010 A 
ATOM     12  C   LIG    1       -1.148  -1.792   1.189  0.00  0.00    -0.090 A 
ATOM     13  C   LIG    1        0.026  -0.837   1.285  0.00  0.00    +0.070 C 
ENDROOT
TORSDOF 0
ENDMDL
MODEL      379
REMARK  Name = ZINC000071789896
REMARK                            x       y       z     vdW  Elec       q    Type
REMARK                         _______ _______ _______ _____ _____    ______ ____
ROOT
ATOM      1  C   LIG    1       -1.300  -2.051  -0.076  0.00  0.00    -0.010 C 
ATOM      2  C   LIG    1       -2.711  -2.636  -0.166  0.00  0.00    +0.020 C 
ENDROOT
BRANCH   1   3
ATOM      3  C   LIG    1       -1.386  -0.528   0.036  0.00  0.00    -0.020 C 
ATOM      4  C   LIG    1       -2.208   0.024  -1.131  0.00  0.00    +0.010 C 
BRANCH   3   6
ATOM      5  C   LIG    1       -2.036   1.370   1.526  0.00  0.00    +0.000 C 
ATOM      6  C   LIG    1       -2.059  -0.151   1.357  0.00  0.00    +0.000 C 
ENDBRANCH   3   6
ENDBRANCH   1   3
BRANCH   1   7
ATOM      7  C   LIG    1       -0.511  -2.427  -1.332  0.00  0.00    -0.020 C 
ATOM      8  C   LIG    1        0.920  -1.900  -1.211  0.00  0.00    +0.020 C 
BRANCH   7   9
ATOM      9  C   LIG    1       -0.484  -3.949  -1.481  0.00  0.00    +0.010 C 
ATOM     10  C   LIG    1        0.197  -4.320  -2.800  0.00  0.00    +0.000 C 
ENDBRANCH   7   9
ENDBRANCH   1   7
TORSDOF 4
ENDMDL
MODEL      380
REMARK  Name = ZINC000071789888
REMARK                            x       y       z     vdW  Elec       q    Type
REMARK                         _______ _______ _______ _____ _____    ______ ____
ROOT
ATOM      1  C   LIG    1       -1.413  -2.059   0.130  0.00  0.00    +0.000 C 
ENDROOT
BRANCH   1   2
ATOM      2  C   LIG    1       -1.433  -0.534   0.013  0.00  0.00    -0.020 C 
ATOM      3  C   LIG    1       -2.135  -0.131  -1.286  0.00  0.00    +0.020 C 
BRANCH   2   5
ATOM      4  C   LIG    1       -0.019   1.526   0.010  0.00  0.00    +0.000 C 
ATOM      5  C   LIG    1        0.002  -0.004   0.002  0.00  0.00    +0.000 C 
ENDBRANCH   2   5
ENDBRANCH   1   2
BRANCH   1   6
ATOM      6  C   LIG    1       -2.846  -2.579   0.267  0.00  0.00    +0.000 C 
BRANCH   6   7
ATOM      7  C   LIG    1       -2.826  -4.104   0.384  0.00  0.00    -0.020 C 
ATOM      8  C   LIG    1       -2.124  -4.507   1.682  0.00  0.00    +0.010 C 
BRANCH   7   9
ATOM      9  C   LIG    1       -4.261  -4.634   0.395  0.00  0.00    +0.000 C 
ATOM     10  C   LIG    1       -4.240  -6.164   0.386  0.00  0.00    +0.000 C 
ENDBRANCH   7   9
ENDBRANCH   6   7
ENDBRANCH   1   6
TORSDOF 5
ENDMDL
MODEL      381
REMARK  Name = ZINC000071791914
REMARK                            x       y       z     vdW  Elec       q    Type
REMARK                         _______ _______ _______ _____ _____    ______ ____
ROOT
ATOM      1  C   LIG    1       -0.018   1.503   0.010  0.00  0.00    +0.110 C 
ATOM      2  C   LIG    1        0.002  -0.004   0.002  0.00  0.00    -0.050 A 
ATOM      3  C   LIG    1        0.006  -0.689  -1.199  0.00  0.00    +0.010 A 
ATOM      4  C   LIG    1        0.025  -2.071  -1.206  0.00  0.00    -0.030 A 
ATOM      5  C   LIG    1        0.041  -2.768  -0.013  0.00  0.00    -0.190 A 
ATOM      6  C   LIG    1        0.038  -2.084   1.188  0.00  0.00    +0.070 A 
ATOM      7  C   LIG    1        0.028  -2.817  -2.515  0.00  0.00    +0.100 C 
ATOM      8  C   LIG    1        0.023  -0.702   1.196  0.00  0.00    -0.100 A 
ATOM      9  C   LIG    1        0.020   0.045   2.505  0.00  0.00    +0.100 C 
ENDROOT
BRANCH   5  10
ATOM     10  C   LIG    1        0.061  -4.275  -0.021  0.00  0.00    +0.510 C 
ATOM     11  F   LIG    1        1.206  -4.722  -0.690  0.00  0.00    -0.180 F 
ATOM     12  F   LIG    1       -1.078  -4.754  -0.677  0.00  0.00    -0.180 F 
ATOM     13  F   LIG    1        0.075  -4.749   1.295  0.00  0.00    -0.180 F 
ENDBRANCH   5  10
TORSDOF 1
ENDMDL
MODEL      382
REMARK  Name = ZINC000090415632
REMARK                            x       y       z     vdW  Elec       q    Type
REMARK                         _______ _______ _______ _____ _____    ______ ____
ROOT
ATOM      1  C   LIG    1       -1.433  -0.534   0.013  0.00  0.00    -0.020 C 
ATOM      2  C   LIG    1       -2.111  -0.199   1.355  0.00  0.00    +0.000 C 
ATOM      3  C   LIG    1       -2.533  -1.546   1.984  0.00  0.00    +0.010 C 
ATOM      4  C   LIG    1       -2.630  -2.493   0.773  0.00  0.00    -0.020 C 
ATOM      5  C   LIG    1       -2.597  -3.949   1.171  0.00  0.00    +0.010 C 
ATOM      6  C   LIG    1       -1.256  -4.329   1.799  0.00  0.00    +0.000 C 
ATOM      7  C   LIG    1       -0.150  -4.043   0.776  0.00  0.00    +0.000 C 
ATOM      8  C   LIG    1       -0.119  -2.542   0.502  0.00  0.00    +0.020 C 
ATOM      9  C   LIG    1       -1.431  -2.082  -0.101  0.00  0.00    +0.000 C 
ENDROOT
BRANCH   1  11
ATOM     10  C   LIG    1       -0.019   1.526   0.010  0.00  0.00    -0.010 C 
ATOM     11  C   LIG    1        0.002  -0.004   0.002  0.00  0.00    +0.010 C 
ENDBRANCH   1  11
TORSDOF 1
ENDMDL
MODEL      383
REMARK  Name = ZINC000072099269
REMARK                            x       y       z     vdW  Elec       q    Type
REMARK                         _______ _______ _______ _____ _____    ______ ____
ROOT
ATOM      1  C   LIG    1       -0.018   1.503   0.010  0.00  0.00    +0.110 C 
ATOM      2  C   LIG    1        0.002  -0.004   0.002  0.00  0.00    -0.120 C 
ATOM      3  C   LIG    1        0.008  -0.776  -1.073  0.00  0.00    +0.000 C 
ATOM      4  C   LIG    1        0.030  -2.199  -0.702  0.00  0.00    -0.060 A 
ATOM      5  C   LIG    1        0.044  -3.383  -1.483  0.00  0.00    -0.030 A 
ATOM      6  C   LIG    1        0.037  -3.327  -2.884  0.00  0.00    +0.020 A 
ATOM      7  C   LIG    1        0.051  -4.482  -3.605  0.00  0.00    +0.000 A 
ATOM      8  C   LIG    1        0.072  -5.722  -2.971  0.00  0.00    +0.000 A 
ATOM      9  C   LIG    1        0.079  -5.814  -1.613  0.00  0.00    +0.020 A 
ATOM     10  C   LIG    1        0.065  -4.642  -0.836  0.00  0.00    -0.050 A 
ATOM     11  C   LIG    1        0.071  -4.702   0.568  0.00  0.00    +0.020 A 
ATOM     12  C   LIG    1        0.058  -3.551   1.299  0.00  0.00    +0.030 A 
ATOM     13  C   LIG    1        0.038  -2.310   0.681  0.00  0.00    -0.110 A 
ATOM     14  C   LIG    1        0.026  -0.898   1.220  0.00  0.00    +0.140 C 
ENDROOT
TORSDOF 0
ENDMDL
MODEL      384
REMARK  Name = ZINC000072207212
REMARK                            x       y       z     vdW  Elec       q    Type
REMARK                         _______ _______ _______ _____ _____    ______ ____
ROOT
ATOM      1  C   LIG    1       -0.018   1.503   0.010  0.00  0.00    +0.110 C 
ATOM      2  C   LIG    1        0.002  -0.004   0.002  0.00  0.00    -0.020 A 
ATOM      3  C   LIG    1        0.006  -0.684  -1.208  0.00  0.00    +0.000 A 
ATOM      4  C   LIG    1        0.025  -2.050  -1.237  0.00  0.00    -0.020 A 
ATOM      5  C   LIG    1        0.040  -2.769  -0.038  0.00  0.00    -0.120 A 
ATOM      6  C   LIG    1        0.061  -4.234  -0.033  0.00  0.00    +0.160 A 
ATOM      7  C   LIG    1        0.077  -4.877   1.161  0.00  0.00    +0.010 A 
ATOM      8  C   LIG    1        0.072  -4.142   2.364  0.00  0.00    +0.340 A 
ATOM      9  N   LIG    1        0.052  -2.798   2.371  0.00  0.00    -0.550 N 
ATOM     10  H   LIG    1        0.050  -2.324   3.217  0.00  0.00    +0.430 HD
ATOM     11  S   LIG    1        0.091  -4.984   3.855  0.00  0.00    -0.590 S 
ATOM     12  C   LIG    1        0.037  -2.083   1.191  0.00  0.00    +0.160 A 
ATOM     13  C   LIG    1        0.029  -2.779  -2.556  0.00  0.00    +0.110 C 
ATOM     14  C   LIG    1        0.023  -0.693   1.196  0.00  0.00    -0.020 A 
ENDROOT
TORSDOF 0
ENDMDL
MODEL      385
REMARK  Name = ZINC000072207213
REMARK                            x       y       z     vdW  Elec       q    Type
REMARK                         _______ _______ _______ _____ _____    ______ ____
ROOT
ATOM      1  C   LIG    1       -0.018   1.503   0.010  0.00  0.00    +0.110 C 
ATOM      2  C   LIG    1        0.002  -0.004   0.002  0.00  0.00    -0.100 A 
ATOM      3  C   LIG    1        0.006  -0.675  -1.189  0.00  0.00    +0.080 A 
ATOM      4  C   LIG    1        0.025  -2.073  -1.196  0.00  0.00    -0.110 A 
ATOM      5  C   LIG    1        0.041  -2.780   0.020  0.00  0.00    +0.150 A 
ATOM      6  N   LIG    1        0.061  -4.160   0.006  0.00  0.00    -0.550 N 
ATOM      7  H   LIG    1        0.072  -4.646   0.845  0.00  0.00    +0.430 HD
ATOM      8  C   LIG    1        0.066  -4.839  -1.154  0.00  0.00    +0.340 A 
ATOM      9  C   LIG    1        0.051  -4.179  -2.399  0.00  0.00    +0.010 A 
ATOM     10  S   LIG    1        0.091  -6.551  -1.118  0.00  0.00    -0.590 S 
ATOM     11  C   LIG    1        0.036  -2.077   1.220  0.00  0.00    -0.010 A 
ATOM     12  C   LIG    1        0.030  -2.824  -2.454  0.00  0.00    +0.160 A 
ATOM     13  C   LIG    1        0.023  -0.698   1.204  0.00  0.00    -0.030 A 
ATOM     14  C   LIG    1        0.019   0.062   2.505  0.00  0.00    +0.100 C 
ENDROOT
TORSDOF 0
ENDMDL
MODEL      386
REMARK  Name = ZINC000072220724
REMARK                            x       y       z     vdW  Elec       q    Type
REMARK                         _______ _______ _______ _____ _____    ______ ____
ROOT
ATOM      1  C   LIG    1       -1.412  -0.526   0.013  0.00  0.00    -0.110 A 
ATOM      2  C   LIG    1       -2.048  -0.765   1.223  0.00  0.00    +0.040 A 
ATOM      3  C   LIG    1       -3.340  -1.242   1.255  0.00  0.00    -0.010 A 
ATOM      4  C   LIG    1       -4.016  -1.487   0.064  0.00  0.00    +0.110 A 
ATOM      5  N   LIG    1       -5.279  -1.952  -0.231  0.00  0.00    -0.590 N 
ATOM      6  H   LIG    1       -5.948  -2.202   0.425  0.00  0.00    +0.420 HD
ATOM      7  C   LIG    1       -5.448  -2.009  -1.588  0.00  0.00    +0.110 A 
ATOM      8  C   LIG    1       -4.330  -1.594  -2.206  0.00  0.00    -0.140 A 
ATOM      9  C   LIG    1       -4.108  -1.506  -3.695  0.00  0.00    +0.130 C 
ATOM     10 CL   LIG    1       -6.893  -2.539  -2.391  0.00  0.00    -0.010 Cl
ATOM     11  C   LIG    1       -3.367  -1.242  -1.160  0.00  0.00    -0.100 A 
ATOM     12  C   LIG    1       -2.059  -0.754  -1.169  0.00  0.00    +0.060 A 
ENDROOT
BRANCH   1  14
ATOM     13  C   LIG    1       -0.019   1.526   0.010  0.00  0.00    +0.030 C 
ATOM     14  C   LIG    1        0.002  -0.004   0.002  0.00  0.00    +0.060 C 
ENDBRANCH   1  14
TORSDOF 1
ENDMDL
MODEL      387
REMARK  Name = ZINC000072220720
REMARK                            x       y       z     vdW  Elec       q    Type
REMARK                         _______ _______ _______ _____ _____    ______ ____
ROOT
ATOM      1  N   LIG    1       -1.372  -0.511   0.012  0.00  0.00    -0.480 N 
ATOM      2  C   LIG    1       -2.106  -0.786   1.146  0.00  0.00    +0.110 A 
ATOM      3  C   LIG    1       -1.836  -0.692   2.506  0.00  0.00    -0.010 A 
ATOM      4  C   LIG    1       -2.802  -1.052   3.422  0.00  0.00    +0.040 A 
ATOM      5  C   LIG    1       -4.043  -1.507   3.000  0.00  0.00    -0.020 A 
ATOM      6  C   LIG    1       -4.329  -1.607   1.667  0.00  0.00    +0.060 A 
ATOM      7  C   LIG    1       -3.366  -1.248   0.723  0.00  0.00    -0.100 A 
ATOM      8  C   LIG    1       -3.333  -1.230  -0.742  0.00  0.00    -0.140 A 
ATOM      9  C   LIG    1       -4.450  -1.637  -1.668  0.00  0.00    +0.130 C 
ATOM     10  C   LIG    1       -2.121  -0.777  -1.102  0.00  0.00    +0.110 A 
ATOM     11 CL   LIG    1       -1.581  -0.568  -2.739  0.00  0.00    -0.010 Cl
ENDROOT
BRANCH   1  13
ATOM     12  C   LIG    1       -0.019   1.526   0.010  0.00  0.00    +0.030 C 
ATOM     13  C   LIG    1        0.002  -0.004   0.002  0.00  0.00    +0.280 C 
ENDBRANCH   1  13
TORSDOF 1
ENDMDL
MODEL      388
REMARK  Name = ZINC000072227003
REMARK                            x       y       z     vdW  Elec       q    Type
REMARK                         _______ _______ _______ _____ _____    ______ ____
ROOT
ATOM      1  C   LIG    1       -0.018   1.503   0.010  0.00  0.00    +0.090 C 
ATOM      2  C   LIG    1        0.002  -0.004   0.002  0.00  0.00    -0.080 A 
ATOM      3  C   LIG    1        0.006  -0.684  -1.214  0.00  0.00    +0.030 A 
ATOM      4  C   LIG    1        0.024  -2.044  -1.257  0.00  0.00    +0.030 A 
ATOM      5  C   LIG    1        0.040  -2.777  -0.058  0.00  0.00    -0.040 A 
ATOM      6  C   LIG    1        0.037  -2.086   1.179  0.00  0.00    -0.050 A 
ATOM      7  C   LIG    1        0.053  -2.817   2.380  0.00  0.00    +0.060 A 
ATOM      8  C   LIG    1        0.073  -4.177   2.341  0.00  0.00    +0.010 A 
ATOM      9  C   LIG    1        0.076  -4.862   1.123  0.00  0.00    +0.120 A 
ATOM     10  C   LIG    1        0.060  -4.182  -0.063  0.00  0.00    -0.060 A 
ATOM     11 CL   LIG    1        0.065  -5.050  -1.567  0.00  0.00    -0.050 Cl
ATOM     12  C   LIG    1        0.022  -0.681   1.183  0.00  0.00    +0.020 A 
ENDROOT
BRANCH   9  13
ATOM     13  O   LIG    1        0.095  -6.221   1.117  0.00  0.00    -0.490 OA
ATOM     14  H   LIG    1       -0.783  -6.626   1.119  0.00  0.00    +0.390 HD
ENDBRANCH   9  13
TORSDOF 1
ENDMDL
MODEL      389
REMARK  Name = ZINC000072236936
REMARK                            x       y       z     vdW  Elec       q    Type
REMARK                         _______ _______ _______ _____ _____    ______ ____
ROOT
ATOM      1  C   LIG    1       -0.018   1.503   0.010  0.00  0.00    +0.110 C 
ATOM      2  C   LIG    1        0.002  -0.004   0.002  0.00  0.00    -0.050 A 
ATOM      3  C   LIG    1        0.006  -0.681  -1.179  0.00  0.00    +0.020 A 
ATOM      4  C   LIG    1        0.025  -2.074  -1.209  0.00  0.00    +0.030 A 
ATOM      5  C   LIG    1        0.041  -2.797  -0.056  0.00  0.00    +0.020 A 
ATOM      6  C   LIG    1        0.037  -2.132   1.180  0.00  0.00    -0.090 A 
ATOM      7  C   LIG    1        0.053  -2.844   2.396  0.00  0.00    +0.010 A 
ATOM      8  C   LIG    1        0.049  -2.129   3.562  0.00  0.00    -0.130 A 
ATOM      9  C   LIG    1        0.029  -0.738   3.523  0.00  0.00    +0.310 A 
ATOM     10  N   LIG    1        0.014  -0.079   2.389  0.00  0.00    -0.460 NA
ATOM     11  C   LIG    1        0.066  -2.846   4.887  0.00  0.00    +0.120 C 
ATOM     12 CL   LIG    1        0.079  -4.580   2.414  0.00  0.00    -0.040 Cl
ATOM     13  C   LIG    1        0.023  -0.716   1.214  0.00  0.00    +0.130 A 
ENDROOT
TORSDOF 0
ENDMDL
MODEL      390
REMARK  Name = ZINC000072265625
REMARK                            x       y       z     vdW  Elec       q    Type
REMARK                         _______ _______ _______ _____ _____    ______ ____
ROOT
ATOM      1  C   LIG    1       -1.388  -0.642  -0.033  0.00  0.00    +0.030 C 
ENDROOT
BRANCH   1   2
ATOM      2  C   LIG    1       -1.492  -2.115   0.267  0.00  0.00    -0.090 A 
ATOM      3  C   LIG    1       -0.919  -3.037  -0.589  0.00  0.00    +0.020 A 
ATOM      4  C   LIG    1       -1.014  -4.388  -0.313  0.00  0.00    +0.010 A 
ATOM      5  C   LIG    1       -1.682  -4.817   0.819  0.00  0.00    +0.010 A 
ATOM      6  C   LIG    1       -2.254  -3.896   1.675  0.00  0.00    +0.010 A 
ATOM      7  C   LIG    1       -2.155  -2.544   1.402  0.00  0.00    +0.020 A 
ENDBRANCH   1   2
BRANCH   1   8
ATOM      8  C   LIG    1       -2.050  -0.348  -1.381  0.00  0.00    +0.460 C 
ATOM      9  F   LIG    1       -2.065   1.033  -1.602  0.00  0.00    -0.180 F 
ATOM     10  F   LIG    1       -3.363  -0.833  -1.371  0.00  0.00    -0.180 F 
ATOM     11  F   LIG    1       -1.329  -0.977  -2.401  0.00  0.00    -0.180 F 
ENDBRANCH   1   8
BRANCH   1  13
ATOM     12  C   LIG    1        0.713  -0.398   1.296  0.00  0.00    +0.030 C 
ATOM     13  C   LIG    1        0.086  -0.235  -0.089  0.00  0.00    +0.040 C 
ENDBRANCH   1  13
TORSDOF 3
ENDMDL
MODEL      391
REMARK  Name = ZINC000072265644
REMARK                            x       y       z     vdW  Elec       q    Type
REMARK                         _______ _______ _______ _____ _____    ______ ____
ROOT
ATOM      1  C   LIG    1       -0.018   1.503   0.010  0.00  0.00    +0.110 C 
ATOM      2  C   LIG    1        0.002  -0.004   0.002  0.00  0.00    -0.070 A 
ATOM      3  C   LIG    1        0.006  -0.689  -1.198  0.00  0.00    +0.060 A 
ATOM      4  C   LIG    1        0.024  -2.071  -1.206  0.00  0.00    -0.150 A 
ATOM      5  C   LIG    1        0.040  -2.769  -0.013  0.00  0.00    +0.060 A 
ATOM      6  C   LIG    1        0.036  -2.086   1.188  0.00  0.00    +0.030 A 
ATOM      7  C   LIG    1        0.023  -0.702   1.196  0.00  0.00    -0.020 A 
ATOM      8 CL   LIG    1        0.018   0.157   2.705  0.00  0.00    -0.060 Cl
ENDROOT
BRANCH   4   9
ATOM      9  C   LIG    1        0.028  -2.817  -2.516  0.00  0.00    +0.340 C 
ATOM     10  F   LIG    1       -0.646  -2.064  -3.483  0.00  0.00    -0.190 F 
ATOM     11  F   LIG    1       -0.614  -4.049  -2.353  0.00  0.00    -0.190 F 
ATOM     12  C   LIG    1        1.472  -3.050  -2.966  0.00  0.00    +0.080 C 
ENDBRANCH   4   9
TORSDOF 1
ENDMDL
MODEL      392
REMARK  Name = ZINC000072265636
REMARK                            x       y       z     vdW  Elec       q    Type
REMARK                         _______ _______ _______ _____ _____    ______ ____
ROOT
ATOM      1  C   LIG    1        0.739  -2.027  -1.265  0.00  0.00    +0.340 C 
ATOM      2  F   LIG    1       -0.574  -2.512  -1.255  0.00  0.00    -0.190 F 
ATOM      3  F   LIG    1        1.416  -2.491  -0.132  0.00  0.00    -0.190 F 
ENDROOT
BRANCH   1   4
ATOM      4  C   LIG    1        1.444  -2.513  -2.505  0.00  0.00    -0.160 A 
ATOM      5  C   LIG    1        0.726  -2.742  -3.664  0.00  0.00    +0.040 A 
ATOM      6  C   LIG    1        1.373  -3.188  -4.801  0.00  0.00    +0.010 A 
ATOM      7  C   LIG    1        2.738  -3.405  -4.780  0.00  0.00    +0.030 A 
ATOM      8  C   LIG    1        3.457  -3.175  -3.621  0.00  0.00    +0.010 A 
ATOM      9  C   LIG    1        2.810  -2.725  -2.485  0.00  0.00    +0.040 A 
ENDBRANCH   1   4
BRANCH   1  10
ATOM     10  C   LIG    1        0.718  -0.497  -1.257  0.00  0.00    +0.050 C 
BRANCH  10  12
ATOM     11  C   LIG    1       -0.019   1.526   0.010  0.00  0.00    +0.030 C 
ATOM     12  C   LIG    1        0.002  -0.004   0.002  0.00  0.00    +0.010 C 
ENDBRANCH  10  12
ENDBRANCH   1  10
TORSDOF 3
ENDMDL
MODEL      393
REMARK  Name = ZINC000001656092
REMARK                            x       y       z     vdW  Elec       q    Type
REMARK                         _______ _______ _______ _____ _____    ______ ____
ROOT
ATOM      1  C   LIG    1        0.863  -0.463   1.317  0.00  0.00    +0.000 C 
ENDROOT
BRANCH   1   3
ATOM      2  C   LIG    1        0.029   1.468  -0.032  0.00  0.00    +0.010 C 
ATOM      3  C   LIG    1        0.202  -0.052  -0.000  0.00  0.00    -0.020 C 
ATOM      4  C   LIG    1        1.084  -0.489  -1.172  0.00  0.00    +0.030 C 
ENDBRANCH   1   3
BRANCH   1   5
ATOM      5  C   LIG    1        1.139  -1.968   1.301  0.00  0.00    +0.160 C 
ATOM      6  C   LIG    1       -0.188  -2.729   1.293  0.00  0.00    -0.010 C 
BRANCH   5   7
ATOM      7  O   LIG    1        1.887  -2.327   2.465  0.00  0.00    -0.560 OA
ATOM      8  H   LIG    1        2.098  -3.269   2.521  0.00  0.00    +0.370 HD
ENDBRANCH   5   7
ENDBRANCH   1   5
BRANCH   1   9
ATOM      9  C   LIG    1       -0.070  -0.127   2.482  0.00  0.00    +0.010 C 
BRANCH   9  10
ATOM     10  C   LIG    1        0.655  -0.382   3.805  0.00  0.00    +0.010 C 
ATOM     11  C   LIG    1        1.864   0.550   3.913  0.00  0.00    +0.000 C 
ATOM     12  C   LIG    1        2.588   0.294   5.236  0.00  0.00    -0.010 C 
ATOM     13  C   LIG    1        1.633   0.561   6.401  0.00  0.00    +0.000 C 
ATOM     14  C   LIG    1        0.424  -0.371   6.293  0.00  0.00    +0.000 C 
ATOM     15  C   LIG    1       -0.300  -0.116   4.970  0.00  0.00    -0.010 C 
ENDBRANCH   9  10
ENDBRANCH   1   9
TORSDOF 5
ENDMDL
MODEL      394
REMARK  Name = ZINC000031361089
REMARK                            x       y       z     vdW  Elec       q    Type
REMARK                         _______ _______ _______ _____ _____    ______ ____
ROOT
ATOM      1  C   LIG    1        1.350  -2.519  -2.594  0.00  0.00    +0.000 C 
ATOM      2  C   LIG    1        2.814  -2.132  -2.516  0.00  0.00    -0.020 C 
ATOM      3  C   LIG    1        3.677  -2.841  -3.550  0.00  0.00    +0.010 C 
ATOM      4  C   LIG    1        3.453  -4.350  -3.499  0.00  0.00    +0.000 C 
ATOM      5  C   LIG    1        1.987  -4.646  -3.807  0.00  0.00    +0.010 C 
ATOM      6  C   LIG    1        3.379  -2.335  -1.111  0.00  0.00    +0.010 C 
ATOM      7  C   LIG    1        1.075  -4.004  -2.768  0.00  0.00    -0.050 C 
ATOM      8  C   LIG    1       -0.381  -4.164  -3.256  0.00  0.00    +0.010 C 
ATOM      9  C   LIG    1        1.195  -4.745  -1.434  0.00  0.00    +0.020 C 
ENDROOT
BRANCH   1  10
ATOM     10  C   LIG    1        0.630  -2.023  -1.329  0.00  0.00    +0.020 C 
BRANCH  10  11
ATOM     11  C   LIG    1        0.718  -0.497  -1.257  0.00  0.00    -0.020 C 
BRANCH  11  13
ATOM     12  C   LIG    1       -0.019   1.526   0.010  0.00  0.00    +0.000 C 
ATOM     13  C   LIG    1        0.002  -0.004   0.002  0.00  0.00    +0.200 C 
BRANCH  13  14
ATOM     14  O   LIG    1        0.693  -0.477   1.160  0.00  0.00    -0.560 OA
ATOM     15  H   LIG    1        1.611  -0.180   1.219  0.00  0.00    +0.370 HD
ENDBRANCH  13  14
ENDBRANCH  11  13
ENDBRANCH  10  11
ENDBRANCH   1  10
TORSDOF 4
ENDMDL
MODEL      395
REMARK  Name = ZINC000090414087
REMARK                            x       y       z     vdW  Elec       q    Type
REMARK                         _______ _______ _______ _____ _____    ______ ____
ROOT
ATOM      1  C   LIG    1        0.632  -2.000  -1.327  0.00  0.00    -0.090 A 
ATOM      2  C   LIG    1       -0.274  -2.679  -0.534  0.00  0.00    +0.020 A 
ATOM      3  C   LIG    1       -0.354  -4.057  -0.599  0.00  0.00    +0.010 A 
ATOM      4  C   LIG    1        0.472  -4.757  -1.458  0.00  0.00    +0.010 A 
ATOM      5  C   LIG    1        1.378  -4.079  -2.252  0.00  0.00    +0.000 A 
ATOM      6  C   LIG    1        1.454  -2.700  -2.190  0.00  0.00    +0.030 A 
ENDROOT
BRANCH   1   7
ATOM      7  C   LIG    1        0.718  -0.497  -1.257  0.00  0.00    +0.070 C 
ATOM      8 CL   LIG    1        2.450   0.003  -1.198  0.00  0.00    -0.170 Cl
ATOM      9  C   LIG    1        0.053   0.110  -2.493  0.00  0.00    +0.080 C 
BRANCH   7  11
ATOM     10  C   LIG    1       -0.019   1.526   0.010  0.00  0.00    +0.020 C 
ATOM     11  C   LIG    1        0.002  -0.004   0.002  0.00  0.00    +0.040 C 
ENDBRANCH   7  11
ENDBRANCH   1   7
TORSDOF 2
ENDMDL
MODEL      396
REMARK  Name = ZINC000075839006
REMARK                            x       y       z     vdW  Elec       q    Type
REMARK                         _______ _______ _______ _____ _____    ______ ____
ROOT
ATOM      1  C   LIG    1       -1.412  -0.526   0.013  0.00  0.00    +0.060 A 
ATOM      2  N   LIG    1       -1.929  -1.277  -0.900  0.00  0.00    -0.470 NA
ATOM      3  C   LIG    1       -3.183  -1.646  -0.735  0.00  0.00    +0.080 A 
ATOM      4  C   LIG    1       -3.756  -1.180   0.378  0.00  0.00    -0.080 A 
ATOM      5  S   LIG    1       -2.561  -0.214   1.240  0.00  0.00    +0.110 S 
ENDROOT
BRANCH   3   6
ATOM      6  C   LIG    1       -3.912  -2.522  -1.722  0.00  0.00    +0.010 C 
ATOM      7  C   LIG    1       -3.260  -3.906  -1.753  0.00  0.00    +0.030 C 
ATOM      8  C   LIG    1       -3.838  -1.892  -3.114  0.00  0.00    +0.030 C 
ATOM      9  C   LIG    1       -5.376  -2.657  -1.300  0.00  0.00    +0.040 C 
ENDBRANCH   3   6
BRANCH   1  11
ATOM     10  C   LIG    1       -0.019   1.526   0.010  0.00  0.00    +0.040 C 
ATOM     11  C   LIG    1        0.002  -0.004   0.002  0.00  0.00    +0.080 C 
ATOM     12  C   LIG    1        0.742  -0.511   1.242  0.00  0.00    +0.040 C 
ENDBRANCH   1  11
TORSDOF 2
ENDMDL
MODEL      397
REMARK  Name = ZINC000057988455
REMARK                            x       y       z     vdW  Elec       q    Type
REMARK                         _______ _______ _______ _____ _____    ______ ____
ROOT
ATOM      1  C   LIG    1       -0.018   1.503   0.010  0.00  0.00    +0.090 C 
ATOM      2  C   LIG    1        0.002  -0.004   0.002  0.00  0.00    -0.100 C 
ATOM      3  C   LIG    1        0.000  -0.653  -1.136  0.00  0.00    -0.140 C 
ATOM      4  C   LIG    1        0.010  -2.158  -1.518  0.00  0.00    +0.110 C 
ATOM      5  C   LIG    1        1.203  -2.168  -2.485  0.00  0.00    -0.020 C 
ATOM      6  C   LIG    1        1.189  -1.021  -3.139  0.00  0.00    -0.010 C 
ATOM      7  C   LIG    1       -1.227  -2.212  -2.415  0.00  0.00    -0.090 A 
ATOM      8  C   LIG    1       -2.206  -3.137  -2.719  0.00  0.00    +0.020 A 
ATOM      9  C   LIG    1       -3.198  -2.857  -3.645  0.00  0.00    +0.010 A 
ATOM     10  C   LIG    1       -3.202  -1.647  -4.314  0.00  0.00    +0.000 A 
ATOM     11  C   LIG    1       -2.215  -0.708  -4.061  0.00  0.00    +0.020 A 
ATOM     12  C   LIG    1       -1.233  -0.989  -3.144  0.00  0.00    -0.100 A 
ATOM     13  C   LIG    1       -0.020  -0.215  -2.626  0.00  0.00    +0.100 C 
ATOM     14  C   LIG    1        0.025  -0.764   1.303  0.00  0.00    +0.090 C 
ENDROOT
TORSDOF 0
ENDMDL
MODEL      398
REMARK  Name = ZINC000078206064
REMARK                            x       y       z     vdW  Elec       q    Type
REMARK                         _______ _______ _______ _____ _____    ______ ____
ROOT
ATOM      1  C   LIG    1        0.009  -0.149   2.605  0.00  0.00    +0.130 C 
ENDROOT
BRANCH   1   8
ATOM      2  C   LIG    1        2.533  -0.902   1.418  0.00  0.00    +0.090 C 
ATOM      3  C   LIG    1        1.240  -1.317   0.765  0.00  0.00    -0.090 A 
ATOM      4  C   LIG    1        1.261  -2.060  -0.400  0.00  0.00    +0.000 A 
ATOM      5  C   LIG    1        0.075  -2.440  -1.000  0.00  0.00    +0.000 A 
ATOM      6  C   LIG    1       -1.133  -2.078  -0.433  0.00  0.00    +0.000 A 
ATOM      7  C   LIG    1       -1.154  -1.335   0.733  0.00  0.00    +0.010 A 
ATOM      8  C   LIG    1        0.032  -0.958   1.334  0.00  0.00    -0.080 A 
ENDBRANCH   1   8
BRANCH   1   9
ATOM      9  C   LIG    1       -1.413  -0.008   3.085  0.00  0.00    -0.080 A 
ATOM     10  C   LIG    1       -2.132   1.135   2.788  0.00  0.00    +0.010 A 
ATOM     11  C   LIG    1       -3.436   1.264   3.228  0.00  0.00    +0.000 A 
ATOM     12  C   LIG    1       -4.021   0.251   3.965  0.00  0.00    +0.000 A 
ATOM     13  C   LIG    1       -3.301  -0.892   4.261  0.00  0.00    +0.000 A 
ATOM     14  C   LIG    1       -1.999  -1.023   3.817  0.00  0.00    -0.080 A 
ATOM     15  C   LIG    1       -1.215  -2.269   4.141  0.00  0.00    +0.090 C 
ENDBRANCH   1   9
TORSDOF 2
ENDMDL
MODEL      399
REMARK  Name = ZINC000078760310
REMARK                            x       y       z     vdW  Elec       q    Type
REMARK                         _______ _______ _______ _____ _____    ______ ____
ROOT
ATOM      1  C   LIG    1        1.444  -2.513  -2.505  0.00  0.00    -0.080 A 
ATOM      2  C   LIG    1        0.724  -2.741  -3.664  0.00  0.00    +0.030 A 
ATOM      3  C   LIG    1        1.367  -3.186  -4.802  0.00  0.00    +0.030 A 
ATOM      4  C   LIG    1        2.740  -3.405  -4.782  0.00  0.00    -0.090 A 
ATOM      5  C   LIG    1        3.460  -3.175  -3.616  0.00  0.00    -0.010 A 
ATOM      6  C   LIG    1        2.811  -2.725  -2.483  0.00  0.00    +0.020 A 
ENDROOT
BRANCH   4   7
ATOM      7  S   LIG    1        3.565  -3.972  -6.232  0.00  0.00    -0.120 S 
ATOM      8  C   LIG    1        5.293  -4.095  -5.696  0.00  0.00    +0.130 C 
ENDBRANCH   4   7
BRANCH   1   9
ATOM      9  C   LIG    1        0.739  -2.027  -1.265  0.00  0.00    +0.060 C 
BRANCH   9  10
ATOM     10  C   LIG    1        0.718  -0.497  -1.257  0.00  0.00    +0.010 C 
BRANCH  10  12
ATOM     11  C   LIG    1       -0.019   1.526   0.010  0.00  0.00    +0.000 C 
ATOM     12  C   LIG    1        0.002  -0.004   0.002  0.00  0.00    -0.010 C 
ENDBRANCH  10  12
ENDBRANCH   9  10
ENDBRANCH   1   9
TORSDOF 4
ENDMDL
MODEL      400
REMARK  Name = ZINC000104356371
REMARK                            x       y       z     vdW  Elec       q    Type
REMARK                         _______ _______ _______ _____ _____    ______ ____
ROOT
ATOM      1  C   LIG    1       -1.427  -0.532   0.139  0.00  0.00    -0.020 C 
ATOM      2  C   LIG    1       -1.419  -2.071   0.201  0.00  0.00    +0.010 C 
ATOM      3  C   LIG    1       -2.277  -2.566  -0.985  0.00  0.00    +0.010 C 
ATOM      4  C   LIG    1       -3.190  -1.365  -1.293  0.00  0.00    -0.020 C 
ATOM      5  C   LIG    1       -3.803  -1.440  -2.671  0.00  0.00    +0.010 C 
ATOM      6  C   LIG    1       -2.739  -1.353  -3.764  0.00  0.00    +0.000 C 
ATOM      7  C   LIG    1       -1.990  -0.026  -3.599  0.00  0.00    +0.000 C 
ATOM      8  C   LIG    1       -1.266  -0.041  -2.255  0.00  0.00    +0.020 C 
ATOM      9  C   LIG    1       -2.259  -0.151  -1.115  0.00  0.00    +0.000 C 
ENDROOT
BRANCH   1  11
ATOM     10  C   LIG    1       -0.017   1.526   0.012  0.00  0.00    +0.010 C 
ATOM     11  C   LIG    1        0.002  -0.004   0.002  0.00  0.00    -0.020 C 
ATOM     12  C   LIG    1        0.847  -0.511   1.172  0.00  0.00    +0.010 C 
ENDBRANCH   1  11
TORSDOF 1
ENDMDL
MODEL      401
REMARK  Name = ZINC000079227487
REMARK                            x       y       z     vdW  Elec       q    Type
REMARK                         _______ _______ _______ _____ _____    ______ ____
ROOT
ATOM      1  C   LIG    1       -2.857  -2.609   0.016  0.00  0.00    -0.010 C 
ENDROOT
BRANCH   1   2
ATOM      2  C   LIG    1       -2.658  -4.122   0.113  0.00  0.00    -0.020 C 
ATOM      3  C   LIG    1       -2.166  -4.483   1.516  0.00  0.00    +0.010 C 
ATOM      4  C   LIG    1       -1.621  -4.567  -0.921  0.00  0.00    +0.020 C 
ENDBRANCH   1   2
BRANCH   1   5
ATOM      5  C   LIG    1       -3.422  -2.256  -1.362  0.00  0.00    +0.000 C 
ATOM      6  C   LIG    1       -4.828  -2.842  -1.502  0.00  0.00    +0.000 C 
ENDBRANCH   1   5
BRANCH   1   7
ATOM      7  C   LIG    1       -1.514  -1.903   0.212  0.00  0.00    +0.000 C 
BRANCH   7   8
ATOM      8  C   LIG    1       -1.732  -0.389   0.240  0.00  0.00    +0.000 C 
BRANCH   8  10
ATOM      9  C   LIG    1       -0.606   1.830   0.463  0.00  0.00    +0.000 C 
ATOM     10  C   LIG    1       -0.388   0.316   0.436  0.00  0.00    -0.010 C 
ENDBRANCH   8  10
ENDBRANCH   7   8
ENDBRANCH   1   7
TORSDOF 5
ENDMDL
MODEL      402
REMARK  Name = ZINC000079637231
REMARK                            x       y       z     vdW  Elec       q    Type
REMARK                         _______ _______ _______ _____ _____    ______ ____
ROOT
ATOM      1  C   LIG    1        1.514  -3.834  -2.603  0.00  0.00    +0.130 A 
ATOM      2  C   LIG    1        0.979  -4.691  -1.653  0.00  0.00    -0.060 A 
ATOM      3  C   LIG    1        1.087  -6.058  -1.817  0.00  0.00    +0.070 A 
ATOM      4  C   LIG    1        1.730  -6.575  -2.934  0.00  0.00    -0.120 A 
ATOM      5  C   LIG    1        2.264  -5.716  -3.886  0.00  0.00    +0.040 A 
ATOM      6  C   LIG    1        2.151  -4.349  -3.723  0.00  0.00    +0.010 A 
ENDROOT
BRANCH   4   7
ATOM      7  S   LIG    1        1.867  -8.319  -3.145  0.00  0.00    -0.120 S 
ATOM      8  C   LIG    1        2.764  -8.471  -4.714  0.00  0.00    +0.130 C 
ENDBRANCH   4   7
BRANCH   1   9
ATOM      9  O   LIG    1        1.408  -2.488  -2.441  0.00  0.00    -0.310 OA
BRANCH   9  10
ATOM     10  C   LIG    1        0.739  -2.027  -1.265  0.00  0.00    +0.180 C 
BRANCH  10  11
ATOM     11  C   LIG    1        0.718  -0.497  -1.257  0.00  0.00    +0.020 C 
BRANCH  11  13
ATOM     12  C   LIG    1       -0.019   1.526   0.010  0.00  0.00    +0.030 C 
ATOM     13  C   LIG    1        0.002  -0.004   0.002  0.00  0.00    +0.020 C 
ENDBRANCH  11  13
ENDBRANCH  10  11
ENDBRANCH   9  10
ENDBRANCH   1   9
TORSDOF 5
ENDMDL
MODEL      403
REMARK  Name = ZINC000080687043
REMARK                            x       y       z     vdW  Elec       q    Type
REMARK                         _______ _______ _______ _____ _____    ______ ____
ROOT
ATOM      1  C   LIG    1       -0.599   1.522   0.127  0.00  0.00    +0.090 C 
ATOM      2  C   LIG    1       -0.682   0.017   0.136  0.00  0.00    -0.060 A 
ATOM      3  C   LIG    1       -1.074  -0.539  -1.075  0.00  0.00    -0.010 A 
ATOM      4  C   LIG    1       -1.201  -1.900  -1.235  0.00  0.00    +0.030 A 
ATOM      5  C   LIG    1       -0.928  -2.713  -0.155  0.00  0.00    +0.010 A 
ATOM      6  C   LIG    1       -0.539  -2.161   1.048  0.00  0.00    -0.090 A 
ATOM      7  C   LIG    1       -0.199  -2.862   2.337  0.00  0.00    +0.140 C 
ATOM      8  C   LIG    1        0.153  -1.766   3.308  0.00  0.00    -0.090 A 
ATOM      9  C   LIG    1        0.535  -1.877   4.629  0.00  0.00    +0.010 A 
ATOM     10  C   LIG    1        0.823  -0.746   5.364  0.00  0.00    +0.030 A 
ATOM     11  C   LIG    1        0.718   0.479   4.746  0.00  0.00    -0.010 A 
ATOM     12  C   LIG    1        0.334   0.591   3.415  0.00  0.00    -0.060 A 
ATOM     13  C   LIG    1        0.278   2.007   2.905  0.00  0.00    +0.090 C 
ATOM     14  C   LIG    1        0.034  -0.534   2.648  0.00  0.00    -0.040 A 
ATOM     15  C   LIG    1       -0.399  -0.779   1.245  0.00  0.00    -0.040 A 
ENDROOT
TORSDOF 0
ENDMDL
MODEL      404
REMARK  Name = ZINC000082058527
REMARK                            x       y       z     vdW  Elec       q    Type
REMARK                         _______ _______ _______ _____ _____    ______ ____
ROOT
ATOM      1  C   LIG    1        1.538  -2.515  -2.457  0.00  0.00    -0.020 C 
ATOM      2  C   LIG    1        0.882  -2.013  -3.745  0.00  0.00    +0.010 C 
ENDROOT
BRANCH   1   3
ATOM      3  C   LIG    1        0.722  -2.045  -1.251  0.00  0.00    +0.000 C 
BRANCH   3   4
ATOM      4  C   LIG    1        0.775  -0.519  -1.163  0.00  0.00    +0.000 C 
BRANCH   4   6
ATOM      5  C   LIG    1        0.011   1.477   0.131  0.00  0.00    +0.000 C 
ATOM      6  C   LIG    1       -0.042  -0.049   0.043  0.00  0.00    -0.010 C 
ENDBRANCH   4   6
ENDBRANCH   3   4
ENDBRANCH   1   3
BRANCH   1   7
ATOM      7  C   LIG    1        1.590  -4.044  -2.474  0.00  0.00    +0.010 C 
BRANCH   7   8
ATOM      8  C   LIG    1        2.520  -4.511  -3.596  0.00  0.00    -0.030 C 
ATOM      9  C   LIG    1        2.460  -6.035  -3.707  0.00  0.00    +0.000 C 
ATOM     10  C   LIG    1        3.954  -4.079  -3.282  0.00  0.00    +0.010 C 
ENDBRANCH   7   8
ENDBRANCH   1   7
TORSDOF 5
ENDMDL
MODEL      405
REMARK  Name = ZINC000082058526
REMARK                            x       y       z     vdW  Elec       q    Type
REMARK                         _______ _______ _______ _____ _____    ______ ____
ROOT
ATOM      1  C   LIG    1        1.455  -2.521  -2.524  0.00  0.00    -0.020 C 
ATOM      2  C   LIG    1        2.924  -2.096  -2.474  0.00  0.00    +0.020 C 
ENDROOT
BRANCH   1   3
ATOM      3  C   LIG    1        0.739  -2.027  -1.265  0.00  0.00    +0.000 C 
BRANCH   3   4
ATOM      4  C   LIG    1        0.718  -0.497  -1.257  0.00  0.00    +0.000 C 
BRANCH   4   6
ATOM      5  C   LIG    1       -0.019   1.526   0.010  0.00  0.00    +0.000 C 
ATOM      6  C   LIG    1        0.002  -0.004   0.002  0.00  0.00    -0.010 C 
ENDBRANCH   4   6
ENDBRANCH   3   4
ENDBRANCH   1   3
BRANCH   1   7
ATOM      7  C   LIG    1        1.367  -4.046  -2.596  0.00  0.00    +0.010 C 
BRANCH   7   8
ATOM      8  C   LIG    1        1.973  -4.531  -3.915  0.00  0.00    -0.030 C 
ATOM      9  C   LIG    1        1.126  -4.021  -5.082  0.00  0.00    +0.010 C 
ATOM     10  C   LIG    1        1.999  -6.060  -3.933  0.00  0.00    +0.000 C 
ENDBRANCH   7   8
ENDBRANCH   1   7
TORSDOF 5
ENDMDL
MODEL      406
REMARK  Name = ZINC000001577267
REMARK                            x       y       z     vdW  Elec       q    Type
REMARK                         _______ _______ _______ _____ _____    ______ ____
ROOT
ATOM      1  C   LIG    1        1.292  -0.726  -0.014  0.00  0.00    -0.030 A 
ATOM      2  C   LIG    1        2.492  -0.015  -0.016  0.00  0.00    +0.050 A 
ATOM      3  C   LIG    1        3.694  -0.695  -0.031  0.00  0.00    -0.030 A 
ATOM      4  C   LIG    1        3.709  -2.079  -0.044  0.00  0.00    +0.040 A 
ATOM      5  C   LIG    1        2.523  -2.790  -0.043  0.00  0.00    +0.060 A 
ATOM      6 CL   LIG    1        5.189   0.188  -0.034  0.00  0.00    -0.060 Cl
ATOM      7  C   LIG    1        1.314  -2.122  -0.022  0.00  0.00    -0.030 A 
ATOM      8 CL   LIG    1       -0.174  -3.016  -0.020  0.00  0.00    -0.050 Cl
ENDROOT
BRANCH   1  10
ATOM      9  C   LIG    1       -0.016   1.321   0.009  0.00  0.00    +0.050 C 
ATOM     10  C   LIG    1        0.002  -0.004   0.002  0.00  0.00    +0.000 C 
ENDBRANCH   1  10
TORSDOF 1
ENDMDL
MODEL      407
REMARK  Name = ZINC000001584177
REMARK                            x       y       z     vdW  Elec       q    Type
REMARK                         _______ _______ _______ _____ _____    ______ ____
ROOT
ATOM      1  C   LIG    1       -0.017   1.410   0.010  0.00  0.00    -0.050 A 
ATOM      2  C   LIG    1        1.292   1.755  -0.001  0.00  0.00    -0.030 A 
ATOM      3  C   LIG    1        1.856   3.152  -0.026  0.00  0.00    +0.140 C 
ATOM      4  C   LIG    1        0.819   4.114  -0.609  0.00  0.00    +0.030 C 
ATOM      5  C   LIG    1        0.326   3.584  -1.957  0.00  0.00    +0.000 C 
ATOM      6  C   LIG    1       -1.194   3.740  -2.041  0.00  0.00    +0.000 C 
ATOM      7  C   LIG    1       -1.766   2.678  -2.981  0.00  0.00    +0.000 C 
ATOM      8  C   LIG    1       -2.677   1.735  -2.194  0.00  0.00    +0.000 C 
ATOM      9  C   LIG    1       -1.970   0.393  -1.992  0.00  0.00    +0.000 C 
ATOM     10  C   LIG    1       -2.385  -0.203  -0.644  0.00  0.00    +0.020 C 
ATOM     11  C   LIG    1       -1.192  -0.922  -0.011  0.00  0.00    +0.120 C 
ATOM     12  O   LIG    1        1.987   0.609   0.007  0.00  0.00    +0.090 OA
ATOM     13  N   LIG    1        1.255  -0.354   0.008  0.00  0.00    -0.370 NA
ATOM     14  C   LIG    1        0.002  -0.004   0.002  0.00  0.00    +0.020 A 
ENDROOT
TORSDOF 0
ENDMDL
MODEL      408
REMARK  Name = ZINC000032188371
REMARK                            x       y       z     vdW  Elec       q    Type
REMARK                         _______ _______ _______ _____ _____    ______ ____
ROOT
ATOM      1  C   LIG    1        1.444  -2.513  -2.505  0.00  0.00    +0.110 A 
ATOM      2  N   LIG    1        1.023  -2.096  -3.691  0.00  0.00    -0.480 NA
ATOM      3  C   LIG    1        1.583  -2.473  -4.817  0.00  0.00    +0.310 A 
ATOM      4  C   LIG    1        2.677  -3.353  -4.794  0.00  0.00    -0.120 A 
ATOM      5  C   LIG    1        3.311  -3.785  -5.970  0.00  0.00    +0.050 A 
ATOM      6  C   LIG    1        4.368  -4.639  -5.886  0.00  0.00    +0.010 A 
ATOM      7  C   LIG    1        4.831  -5.094  -4.653  0.00  0.00    +0.030 A 
ATOM      8  C   LIG    1        4.240  -4.697  -3.492  0.00  0.00    +0.010 A 
ATOM      9  C   LIG    1        3.149  -3.816  -3.538  0.00  0.00    -0.020 A 
ATOM     10  C   LIG    1        2.500  -3.364  -2.375  0.00  0.00    -0.020 A 
ENDROOT
BRANCH   1  11
ATOM     11  C   LIG    1        0.739  -2.027  -1.265  0.00  0.00    +0.090 C 
BRANCH  11  12
ATOM     12  C   LIG    1        0.718  -0.497  -1.257  0.00  0.00    +0.020 C 
BRANCH  12  14
ATOM     13  C   LIG    1       -0.019   1.526   0.010  0.00  0.00    +0.000 C 
ATOM     14  C   LIG    1        0.002  -0.004   0.002  0.00  0.00    -0.010 C 
ENDBRANCH  12  14
ENDBRANCH  11  12
ENDBRANCH   1  11
TORSDOF 3
ENDMDL
MODEL      409
REMARK  Name = ZINC000071789889
REMARK                            x       y       z     vdW  Elec       q    Type
REMARK                         _______ _______ _______ _____ _____    ______ ____
ROOT
ATOM      1  C   LIG    1       -1.416  -2.058  -0.121  0.00  0.00    +0.000 C 
ENDROOT
BRANCH   1   2
ATOM      2  C   LIG    1       -1.433  -0.534   0.013  0.00  0.00    -0.020 C 
ATOM      3  C   LIG    1       -2.110  -0.145   1.329  0.00  0.00    +0.010 C 
BRANCH   2   5
ATOM      4  C   LIG    1       -0.019   1.526   0.010  0.00  0.00    +0.000 C 
ATOM      5  C   LIG    1        0.002  -0.004   0.002  0.00  0.00    +0.000 C 
ENDBRANCH   2   5
ENDBRANCH   1   2
BRANCH   1   6
ATOM      6  C   LIG    1       -2.850  -2.576  -0.236  0.00  0.00    +0.000 C 
BRANCH   6   7
ATOM      7  C   LIG    1       -2.833  -4.100  -0.370  0.00  0.00    -0.020 C 
ATOM      8  C   LIG    1       -2.280  -4.719   0.916  0.00  0.00    +0.010 C 
BRANCH   7   9
ATOM      9  C   LIG    1       -4.256  -4.608  -0.609  0.00  0.00    +0.000 C 
ATOM     10  C   LIG    1       -4.224  -6.115  -0.867  0.00  0.00    +0.000 C 
ENDBRANCH   7   9
ENDBRANCH   6   7
ENDBRANCH   1   6
TORSDOF 5
ENDMDL
MODEL      410
REMARK  Name = ZINC000001656091
REMARK                            x       y       z     vdW  Elec       q    Type
REMARK                         _______ _______ _______ _____ _____    ______ ____
ROOT
ATOM      1  C   LIG    1        0.747  -0.108   1.472  0.00  0.00    +0.000 C 
ENDROOT
BRANCH   1   3
ATOM      2  C   LIG    1        1.805   1.746   0.174  0.00  0.00    +0.030 C 
ATOM      3  C   LIG    1        1.827   0.240   0.446  0.00  0.00    -0.020 C 
ATOM      4  C   LIG    1        3.199  -0.159   0.993  0.00  0.00    +0.030 C 
ENDBRANCH   1   3
BRANCH   1   5
ATOM      5  C   LIG    1       -0.618   0.344   0.950  0.00  0.00    +0.160 C 
ATOM      6  C   LIG    1       -0.977  -0.461  -0.301  0.00  0.00    +0.000 C 
BRANCH   5   7
ATOM      7  O   LIG    1       -1.609   0.127   1.956  0.00  0.00    -0.570 OA
ATOM      8  H   LIG    1       -2.501   0.391   1.693  0.00  0.00    +0.380 HD
ENDBRANCH   5   7
ENDBRANCH   1   5
BRANCH   1   9
ATOM      9  C   LIG    1        0.730  -1.621   1.701  0.00  0.00    +0.020 C 
BRANCH   9  10
ATOM     10  C   LIG    1        1.784  -1.990   2.747  0.00  0.00    -0.010 C 
ATOM     11  C   LIG    1        1.390  -1.395   4.100  0.00  0.00    +0.010 C 
ATOM     12  C   LIG    1        2.443  -1.764   5.146  0.00  0.00    +0.000 C 
ATOM     13  C   LIG    1        2.531  -3.287   5.266  0.00  0.00    +0.000 C 
ATOM     14  C   LIG    1        2.925  -3.883   3.913  0.00  0.00    +0.000 C 
ATOM     15  C   LIG    1        1.872  -3.513   2.867  0.00  0.00    +0.010 C 
ENDBRANCH   9  10
ENDBRANCH   1   9
TORSDOF 5
ENDMDL
MODEL      411
REMARK  Name = ZINC000071256777
REMARK                            x       y       z     vdW  Elec       q    Type
REMARK                         _______ _______ _______ _____ _____    ______ ____
ROOT
ATOM      1  C   LIG    1        0.777  -1.810  -1.336  0.00  0.00    +0.140 A 
ATOM      2  C   LIG    1        1.426  -2.320  -2.465  0.00  0.00    -0.010 A 
ATOM      3  C   LIG    1        1.548  -3.661  -2.655  0.00  0.00    -0.030 A 
ATOM      4  C   LIG    1        1.015  -4.551  -1.706  0.00  0.00    -0.080 A 
ATOM      5  C   LIG    1        1.124  -5.942  -1.871  0.00  0.00    +0.040 A 
ATOM      6  C   LIG    1        0.597  -6.775  -0.933  0.00  0.00    -0.010 A 
ATOM      7  C   LIG    1       -0.051  -6.269   0.193  0.00  0.00    +0.020 A 
ATOM      8  C   LIG    1       -0.175  -4.928   0.387  0.00  0.00    +0.010 A 
ATOM      9  C   LIG    1        0.357  -4.036  -0.561  0.00  0.00    -0.010 A 
ATOM     10  C   LIG    1        2.251  -4.191  -3.878  0.00  0.00    +0.100 C 
ATOM     11  C   LIG    1        0.252  -2.646  -0.392  0.00  0.00    -0.090 A 
ENDROOT
BRANCH   1  12
ATOM     12  O   LIG    1        0.671  -0.465  -1.174  0.00  0.00    -0.320 OA
BRANCH  12  14
ATOM     13  C   LIG    1       -0.019   1.526   0.010  0.00  0.00    +0.070 C 
ATOM     14  C   LIG    1        0.002  -0.004   0.002  0.00  0.00    +0.170 C 
ENDBRANCH  12  14
ENDBRANCH   1  12
TORSDOF 2
ENDMDL
MODEL      412
REMARK  Name = ZINC000104047311
REMARK                            x       y       z     vdW  Elec       q    Type
REMARK                         _______ _______ _______ _____ _____    ______ ____
ROOT
ATOM      1  C   LIG    1       -1.388  -0.641  -0.034  0.00  0.00    +0.030 C 
ATOM      2  C   LIG    1       -1.256  -2.150   0.165  0.00  0.00    +0.020 C 
ATOM      3  C   LIG    1       -2.624  -2.794  -0.089  0.00  0.00    +0.020 C 
ATOM      4  C   LIG    1       -2.934  -2.692  -1.581  0.00  0.00    +0.070 C 
ATOM      5  C   LIG    1       -2.757  -1.277  -2.064  0.00  0.00    -0.080 A 
ATOM      6  C   LIG    1       -3.348  -0.926  -3.271  0.00  0.00    +0.000 A 
ATOM      7  C   LIG    1       -3.218   0.353  -3.770  0.00  0.00    +0.000 A 
ATOM      8  C   LIG    1       -2.493   1.295  -3.064  0.00  0.00    +0.000 A 
ATOM      9  C   LIG    1       -1.907   0.949  -1.863  0.00  0.00    +0.000 A 
ATOM     10  C   LIG    1       -2.040  -0.338  -1.358  0.00  0.00    -0.070 A 
ENDROOT
BRANCH   1  12
ATOM     11  C   LIG    1        0.617  -0.199   1.389  0.00  0.00    +0.010 C 
ATOM     12  C   LIG    1        0.002  -0.004   0.002  0.00  0.00    +0.010 C 
ENDBRANCH   1  12
TORSDOF 1
ENDMDL
MODEL      413
REMARK  Name = ZINC000104153439
REMARK                            x       y       z     vdW  Elec       q    Type
REMARK                         _______ _______ _______ _____ _____    ______ ____
ROOT
ATOM      1 CL   LIG    1        0.002  -0.004   0.002  0.00  0.00    -0.090 Cl
ATOM      2  C   LIG    1       -0.023   1.813   0.012  0.00  0.00    +0.070 C 
ATOM      3  C   LIG    1        0.386   2.475   1.304  0.00  0.00    +0.000 C 
ATOM      4  C   LIG    1        0.259   3.975   1.620  0.00  0.00    +0.080 C 
ATOM      5  C   LIG    1       -0.620   4.727   0.662  0.00  0.00    -0.020 C 
ATOM      6  C   LIG    1       -0.356   6.238   0.575  0.00  0.00    +0.030 C 
ATOM      7  C   LIG    1        0.800   6.282  -0.520  0.00  0.00    +0.050 C 
ATOM      8  C   LIG    1        0.832   4.819  -0.909  0.00  0.00    -0.020 C 
ATOM      9  C   LIG    1        1.443   3.975  -0.210  0.00  0.00    -0.060 C 
ATOM     10 CL   LIG    1       -1.332   2.520  -0.999  0.00  0.00    -0.090 Cl
ATOM     11  C   LIG    1        1.351   2.488   0.003  0.00  0.00    +0.040 C 
ENDROOT
TORSDOF 0
ENDMDL
MODEL      414
REMARK  Name = ZINC000071785245
REMARK                            x       y       z     vdW  Elec       q    Type
REMARK                         _______ _______ _______ _____ _____    ______ ____
ROOT
ATOM      1  C   LIG    1       -0.017   1.375   0.010  0.00  0.00    +0.000 A 
ATOM      2  C   LIG    1        1.173   2.079   0.002  0.00  0.00    +0.000 A 
ATOM      3  C   LIG    1        2.372   1.396  -0.008  0.00  0.00    +0.000 A 
ATOM      4  C   LIG    1        2.393   0.008  -0.013  0.00  0.00    -0.070 A 
ATOM      5  C   LIG    1        1.207  -0.695  -0.015  0.00  0.00    -0.080 A 
ATOM      6  C   LIG    1        1.149  -2.200  -0.048  0.00  0.00    +0.070 C 
ATOM      7  C   LIG    1        2.502  -2.813   0.316  0.00  0.00    +0.030 C 
ATOM      8  C   LIG    1        3.580  -2.118  -0.515  0.00  0.00    -0.010 C 
ATOM      9  C   LIG    1        4.922  -2.835  -0.380  0.00  0.00    +0.010 C 
ATOM     10  C   LIG    1        5.962  -2.104  -1.236  0.00  0.00    +0.000 C 
ATOM     11  C   LIG    1        6.094  -0.653  -0.772  0.00  0.00    +0.000 C 
ATOM     12  C   LIG    1        4.740   0.056  -0.879  0.00  0.00    +0.020 C 
ATOM     13  C   LIG    1        3.726  -0.684  -0.009  0.00  0.00    +0.040 C 
ATOM     14  C   LIG    1        0.002  -0.004   0.002  0.00  0.00    +0.000 A 
ENDROOT
TORSDOF 0
ENDMDL
MODEL      415
REMARK  Name = ZINC000071785244
REMARK                            x       y       z     vdW  Elec       q    Type
REMARK                         _______ _______ _______ _____ _____    ______ ____
ROOT
ATOM      1  C   LIG    1       -0.017   1.375   0.010  0.00  0.00    +0.000 A 
ATOM      2  C   LIG    1        1.173   2.080   0.002  0.00  0.00    +0.000 A 
ATOM      3  C   LIG    1        2.372   1.397  -0.018  0.00  0.00    +0.000 A 
ATOM      4  C   LIG    1        2.391   0.009  -0.028  0.00  0.00    -0.070 A 
ATOM      5  C   LIG    1        1.208  -0.694  -0.012  0.00  0.00    -0.070 A 
ATOM      6  C   LIG    1        1.151  -2.199   0.003  0.00  0.00    +0.070 C 
ATOM      7  C   LIG    1        2.497  -2.798  -0.403  0.00  0.00    +0.020 C 
ATOM      8  C   LIG    1        3.592  -2.116   0.419  0.00  0.00    -0.010 C 
ATOM      9  C   LIG    1        4.912  -2.863   0.281  0.00  0.00    +0.010 C 
ATOM     10  C   LIG    1        5.392  -2.821  -1.171  0.00  0.00    +0.000 C 
ATOM     11  C   LIG    1        5.577  -1.361  -1.593  0.00  0.00    +0.000 C 
ATOM     12  C   LIG    1        4.234  -0.637  -1.496  0.00  0.00    +0.020 C 
ATOM     13  C   LIG    1        3.737  -0.675  -0.062  0.00  0.00    +0.040 C 
ATOM     14  C   LIG    1        0.002  -0.004   0.002  0.00  0.00    +0.000 A 
ENDROOT
TORSDOF 0
ENDMDL
MODEL      416
REMARK  Name = ZINC000071785242
REMARK                            x       y       z     vdW  Elec       q    Type
REMARK                         _______ _______ _______ _____ _____    ______ ____
ROOT
ATOM      1  C   LIG    1       -0.017   1.375   0.010  0.00  0.00    +0.000 A 
ATOM      2  C   LIG    1        1.173   2.079   0.002  0.00  0.00    +0.000 A 
ATOM      3  C   LIG    1        2.372   1.396  -0.018  0.00  0.00    +0.000 A 
ATOM      4  C   LIG    1        2.393   0.008  -0.029  0.00  0.00    -0.070 A 
ATOM      5  C   LIG    1        1.207  -0.695  -0.012  0.00  0.00    -0.080 A 
ATOM      6  C   LIG    1        1.150  -2.200   0.004  0.00  0.00    +0.070 C 
ATOM      7  C   LIG    1        2.495  -2.809  -0.392  0.00  0.00    +0.030 C 
ATOM      8  C   LIG    1        3.590  -2.123   0.425  0.00  0.00    -0.010 C 
ATOM      9  C   LIG    1        4.929  -2.839   0.256  0.00  0.00    +0.010 C 
ATOM     10  C   LIG    1        5.985  -2.117   1.099  0.00  0.00    +0.000 C 
ATOM     11  C   LIG    1        6.107  -0.661   0.650  0.00  0.00    +0.000 C 
ATOM     12  C   LIG    1        4.756   0.047   0.791  0.00  0.00    +0.020 C 
ATOM     13  C   LIG    1        3.725  -0.684  -0.067  0.00  0.00    +0.040 C 
ATOM     14  C   LIG    1        0.002  -0.004   0.002  0.00  0.00    +0.000 A 
ENDROOT
TORSDOF 0
ENDMDL
MODEL      417
REMARK  Name = ZINC000071791912
REMARK                            x       y       z     vdW  Elec       q    Type
REMARK                         _______ _______ _______ _____ _____    ______ ____
ROOT
ATOM      1  C   LIG    1       -0.019   1.526   0.010  0.00  0.00    +0.070 C 
ATOM      2  C   LIG    1        0.002  -0.004   0.002  0.00  0.00    -0.060 C 
ATOM      3  C   LIG    1        0.742  -0.511   1.242  0.00  0.00    +0.070 C 
ENDROOT
BRANCH   2   4
ATOM      4  C   LIG    1       -1.412  -0.526   0.013  0.00  0.00    -0.090 A 
ATOM      5  C   LIG    1       -2.474   0.358   0.022  0.00  0.00    +0.030 A 
ATOM      6  C   LIG    1       -3.771  -0.120   0.032  0.00  0.00    +0.010 A 
ATOM      7  C   LIG    1       -4.005  -1.483   0.032  0.00  0.00    +0.010 A 
ATOM      8  C   LIG    1       -2.943  -2.366   0.022  0.00  0.00    +0.010 A 
ATOM      9  C   LIG    1       -1.646  -1.888   0.008  0.00  0.00    +0.020 A 
ENDBRANCH   2   4
BRANCH   2  10
ATOM     10  C   LIG    1        0.718  -0.497  -1.257  0.00  0.00    +0.460 C 
ATOM     11  F   LIG    1        0.042  -0.034  -2.390  0.00  0.00    -0.180 F 
ATOM     12  F   LIG    1        0.737  -1.896  -1.264  0.00  0.00    -0.180 F 
ATOM     13  F   LIG    1        2.031  -0.013  -1.267  0.00  0.00    -0.180 F 
ENDBRANCH   2  10
TORSDOF 2
ENDMDL
MODEL      418
REMARK  Name = ZINC000104356365
REMARK                            x       y       z     vdW  Elec       q    Type
REMARK                         _______ _______ _______ _____ _____    ______ ____
ROOT
ATOM      1  C   LIG    1       -1.495  -0.249   0.203  0.00  0.00    -0.010 C 
ATOM      2  C   LIG    1       -2.281   0.047  -1.103  0.00  0.00    +0.000 C 
ATOM      3  C   LIG    1       -3.400  -1.020  -1.191  0.00  0.00    +0.000 C 
ATOM      4  C   LIG    1       -3.283  -1.834   0.093  0.00  0.00    -0.030 C 
ATOM      5  C   LIG    1       -3.633  -3.306  -0.003  0.00  0.00    +0.010 C 
ATOM      6  C   LIG    1       -3.435  -3.914   1.396  0.00  0.00    +0.000 C 
ATOM      7  C   LIG    1       -2.010  -3.705   1.899  0.00  0.00    +0.000 C 
ATOM      8  C   LIG    1       -1.615  -2.220   1.871  0.00  0.00    +0.010 C 
ATOM      9  C   LIG    1       -1.773  -1.737   0.446  0.00  0.00    -0.020 C 
ENDROOT
BRANCH   1  11
ATOM     10  C   LIG    1        0.260   1.499  -0.126  0.00  0.00    +0.000 C 
ATOM     11  C   LIG    1        0.002  -0.004   0.002  0.00  0.00    -0.020 C 
ATOM     12  C   LIG    1        0.775  -0.553   1.203  0.00  0.00    +0.010 C 
ENDBRANCH   1  11
TORSDOF 1
ENDMDL
MODEL      419
REMARK  Name = ZINC000083317160
REMARK                            x       y       z     vdW  Elec       q    Type
REMARK                         _______ _______ _______ _____ _____    ______ ____
ROOT
ATOM      1  C   LIG    1       -0.018   1.503   0.010  0.00  0.00    +0.140 C 
ATOM      2  C   LIG    1        0.002  -0.004   0.002  0.00  0.00    -0.160 A 
ATOM      3  C   LIG    1       -1.077  -0.761   0.003  0.00  0.00    +0.010 A 
ATOM      4  C   LIG    1       -0.820  -2.193  -0.006  0.00  0.00    -0.070 A 
ATOM      5  C   LIG    1       -1.736  -3.266  -0.008  0.00  0.00    -0.050 A 
ATOM      6  C   LIG    1       -1.291  -4.553  -0.018  0.00  0.00    +0.010 A 
ATOM      7  C   LIG    1        0.069  -4.830  -0.025  0.00  0.00    +0.030 A 
ATOM      8  C   LIG    1        0.984  -3.804  -0.023  0.00  0.00    +0.040 A 
ATOM      9  C   LIG    1       -3.217  -2.986   0.001  0.00  0.00    +0.090 C 
ATOM     10  C   LIG    1        0.549  -2.475  -0.014  0.00  0.00    -0.140 A 
ATOM     11  S   LIG    1        1.464  -0.972  -0.018  0.00  0.00    +0.080 S 
ENDROOT
TORSDOF 0
ENDMDL
MODEL      420
REMARK  Name = ZINC000083316754
REMARK                            x       y       z     vdW  Elec       q    Type
REMARK                         _______ _______ _______ _____ _____    ______ ____
ROOT
ATOM      1  C   LIG    1       -0.887  -1.718  -2.053  0.00  0.00    +0.050 C 
ENDROOT
BRANCH   1   3
ATOM      2  C   LIG    1       -1.397  -0.586   0.050  0.00  0.00    -0.050 C 
ATOM      3  C   LIG    1       -1.839  -1.279  -0.970  0.00  0.00    -0.050 C 
BRANCH   2   5
ATOM      4  C   LIG    1        0.028   1.422   0.342  0.00  0.00    +0.010 C 
ATOM      5  C   LIG    1        0.023  -0.082   0.059  0.00  0.00    +0.040 C 
ENDBRANCH   2   5
ENDBRANCH   1   3
BRANCH   1   6
ATOM      6  C   LIG    1       -1.004  -3.230  -2.252  0.00  0.00    +0.010 C 
BRANCH   6   7
ATOM      7  C   LIG    1       -0.037  -3.675  -3.352  0.00  0.00    +0.000 C 
BRANCH   7   8
ATOM      8  C   LIG    1       -0.153  -5.188  -3.552  0.00  0.00    -0.010 C 
ATOM      9  C   LIG    1        0.813  -5.633  -4.651  0.00  0.00    +0.000 C 
ENDBRANCH   7   8
ENDBRANCH   6   7
ENDBRANCH   1   6
TORSDOF 5
ENDMDL
MODEL      421
REMARK  Name = ZINC000004026370
REMARK                            x       y       z     vdW  Elec       q    Type
REMARK                         _______ _______ _______ _____ _____    ______ ____
ROOT
ATOM      1  C   LIG    1        0.118   1.795  -0.311  0.00  0.00    +0.040 C 
ATOM      2  C   LIG    1        0.234   0.270  -0.288  0.00  0.00    +0.140 C 
ATOM      3  C   LIG    1        0.920  -0.208  -1.572  0.00  0.00    -0.010 C 
ATOM      4  C   LIG    1        1.017  -1.737  -1.523  0.00  0.00    +0.010 C 
ATOM      5  C   LIG    1        1.794  -2.190  -0.281  0.00  0.00    -0.010 C 
ATOM      6  C   LIG    1        1.818  -3.714  -0.239  0.00  0.00    -0.050 C 
ATOM      7  C   LIG    1        0.472  -4.293   0.188  0.00  0.00    +0.010 C 
ATOM      8  C   LIG    1       -0.008  -3.676   1.498  0.00  0.00    +0.010 C 
ATOM      9  C   LIG    1       -0.139  -2.164   1.329  0.00  0.00    -0.010 C 
ATOM     10  C   LIG    1        2.929  -4.246   0.669  0.00  0.00    +0.030 C 
ATOM     11  C   LIG    1        2.124  -4.262  -1.650  0.00  0.00    +0.020 C 
ATOM     12  C   LIG    1        1.216  -1.553   0.973  0.00  0.00    +0.130 C 
ATOM     13  C   LIG    1        2.168  -1.702   2.172  0.00  0.00    +0.050 C 
ATOM     14  O   LIG    1        1.042  -0.137   0.809  0.00  0.00    -0.380 OA
ENDROOT
TORSDOF 0
ENDMDL
MODEL      422
REMARK  Name = ZINC000075854775
REMARK                            x       y       z     vdW  Elec       q    Type
REMARK                         _______ _______ _______ _____ _____    ______ ____
ROOT
ATOM      1  C   LIG    1       -2.175  -0.655  -1.254  0.00  0.00    -0.150 A 
ATOM      2  C   LIG    1       -1.572  -0.317  -2.469  0.00  0.00    +0.050 A 
ATOM      3  C   LIG    1       -2.176  -0.670  -3.657  0.00  0.00    +0.010 A 
ATOM      4  C   LIG    1       -3.377  -1.357  -3.649  0.00  0.00    +0.030 A 
ATOM      5  C   LIG    1       -3.981  -1.696  -2.450  0.00  0.00    +0.010 A 
ATOM      6  C   LIG    1       -3.386  -1.355  -1.254  0.00  0.00    -0.040 A 
ENDROOT
BRANCH   6   7
ATOM      7  C   LIG    1       -4.045  -1.725   0.050  0.00  0.00    +0.010 C 
ATOM      8  C   LIG    1       -4.224  -3.243   0.118  0.00  0.00    +0.040 C 
ATOM      9  C   LIG    1       -5.413  -1.046   0.141  0.00  0.00    +0.030 C 
ENDBRANCH   6   7
BRANCH   1  10
ATOM     10  C   LIG    1       -1.537  -0.282   0.019  0.00  0.00    +0.410 C 
ATOM     11  O   LIG    1       -1.585   0.866   0.407  0.00  0.00    -0.440 OA
BRANCH  10  13
ATOM     12  C   LIG    1        0.645  -1.391   0.416  0.00  0.00    +0.050 C 
ATOM     13  C   LIG    1       -0.824  -1.326   0.839  0.00  0.00    -0.040 C 
ATOM     14  C   LIG    1       -0.912  -0.958   2.321  0.00  0.00    +0.060 C 
ENDBRANCH  10  13
ENDBRANCH   1  10
TORSDOF 3
ENDMDL
MODEL      423
REMARK  Name = ZINC000083838317
REMARK                            x       y       z     vdW  Elec       q    Type
REMARK                         _______ _______ _______ _____ _____    ______ ____
ROOT
ATOM      1  C   LIG    1       -0.018   1.503   0.010  0.00  0.00    +0.080 C 
ATOM      2  C   LIG    1        0.002  -0.004   0.002  0.00  0.00    -0.040 A 
ATOM      3  C   LIG    1        0.006  -0.688  -1.200  0.00  0.00    -0.060 A 
ATOM      4  C   LIG    1        0.025  -2.071  -1.212  0.00  0.00    +0.050 A 
ATOM      5  C   LIG    1        0.040  -2.773  -0.023  0.00  0.00    -0.170 A 
ATOM      6  C   LIG    1        0.036  -2.089   1.186  0.00  0.00    +0.220 A 
ATOM      7  C   LIG    1        0.061  -4.280  -0.037  0.00  0.00    +0.090 C 
ATOM      8  C   LIG    1        0.023  -0.700   1.195  0.00  0.00    -0.080 A 
ENDROOT
BRANCH   6   9
ATOM      9  N   LIG    1        0.052  -2.796   2.391  0.00  0.00    -0.750 N 
ATOM     10  H   LIG    1        0.066  -3.766   2.383  0.00  0.00    +0.400 HD
BRANCH   9  11
ATOM     11  C   LIG    1        0.048  -2.073   3.665  0.00  0.00    +0.250 C 
BRANCH  11  12
ATOM     12  C   LIG    1        0.068  -3.076   4.820  0.00  0.00    -0.030 C 
ATOM     13  C   LIG    1        1.484  -3.506   5.238  0.00  0.00    +0.010 C 
ATOM     14  C   LIG    1        0.990  -3.436   6.693  0.00  0.00    +0.010 C 
ATOM     15  C   LIG    1       -0.058  -2.421   6.206  0.00  0.00    +0.020 C 
ENDBRANCH  11  12
ENDBRANCH   9  11
ENDBRANCH   6   9
TORSDOF 3
ENDMDL
MODEL      424
REMARK  Name = ZINC000083838315
REMARK                            x       y       z     vdW  Elec       q    Type
REMARK                         _______ _______ _______ _____ _____    ______ ____
ROOT
ATOM      1  C   LIG    1       -0.018   1.503   0.010  0.00  0.00    +0.090 C 
ATOM      2  C   LIG    1        0.002  -0.004   0.002  0.00  0.00    -0.040 A 
ATOM      3  C   LIG    1        0.006  -0.688  -1.200  0.00  0.00    -0.060 A 
ATOM      4  C   LIG    1        0.025  -2.071  -1.212  0.00  0.00    +0.050 A 
ATOM      5  C   LIG    1        0.040  -2.773  -0.023  0.00  0.00    -0.080 A 
ATOM      6  C   LIG    1        0.036  -2.089   1.186  0.00  0.00    +0.220 A 
ATOM      7  C   LIG    1        0.023  -0.700   1.195  0.00  0.00    -0.170 A 
ATOM      8  C   LIG    1        0.019   0.046   2.504  0.00  0.00    +0.080 C 
ENDROOT
BRANCH   6   9
ATOM      9  N   LIG    1        0.052  -2.796   2.391  0.00  0.00    -0.750 N 
ATOM     10  H   LIG    1        0.050  -2.318   3.234  0.00  0.00    +0.400 HD
BRANCH   9  11
ATOM     11  C   LIG    1        0.072  -4.261   2.380  0.00  0.00    +0.250 C 
BRANCH  11  12
ATOM     12  C   LIG    1        0.087  -4.782   3.818  0.00  0.00    -0.030 C 
ATOM     13  C   LIG    1       -1.316  -4.953   4.425  0.00  0.00    +0.010 C 
ATOM     14  C   LIG    1       -0.795  -6.252   5.063  0.00  0.00    +0.010 C 
ATOM     15  C   LIG    1        0.231  -6.309   3.919  0.00  0.00    +0.020 C 
ENDBRANCH  11  12
ENDBRANCH   9  11
ENDBRANCH   6   9
TORSDOF 3
ENDMDL
MODEL      425
REMARK  Name = ZINC000248257497
REMARK                            x       y       z     vdW  Elec       q    Type
REMARK                         _______ _______ _______ _____ _____    ______ ____
ROOT
ATOM      1  C   LIG    1        0.795  -1.997  -0.980  0.00  0.00    -0.010 C 
ATOM      2  C   LIG    1        1.522  -2.287  -2.295  0.00  0.00    +0.020 C 
ENDROOT
BRANCH   1   3
ATOM      3  C   LIG    1        0.389  -0.522  -0.937  0.00  0.00    -0.020 C 
ATOM      4  C   LIG    1       -0.530  -0.211  -2.120  0.00  0.00    +0.010 C 
BRANCH   3   6
ATOM      5  C   LIG    1       -0.645   1.263   0.473  0.00  0.00    +0.010 C 
ATOM      6  C   LIG    1       -0.350  -0.235   0.372  0.00  0.00    +0.000 C 
ENDBRANCH   3   6
ENDBRANCH   1   3
BRANCH   1   7
ATOM      7  C   LIG    1        1.723  -2.305   0.196  0.00  0.00    -0.010 C 
ATOM      8  C   LIG    1        3.005  -1.481   0.063  0.00  0.00    +0.020 C 
BRANCH   7   9
ATOM      9  C   LIG    1        2.072  -3.795   0.193  0.00  0.00    -0.020 C 
ATOM     10  C   LIG    1        0.786  -4.620   0.277  0.00  0.00    +0.010 C 
ATOM     11  C   LIG    1        2.962  -4.113   1.397  0.00  0.00    +0.010 C 
ENDBRANCH   7   9
ENDBRANCH   1   7
TORSDOF 4
ENDMDL
MODEL      426
REMARK  Name = ZINC000083838180
REMARK                            x       y       z     vdW  Elec       q    Type
REMARK                         _______ _______ _______ _____ _____    ______ ____
ROOT
ATOM      1  C   LIG    1       -0.018   1.503   0.010  0.00  0.00    +0.070 C 
ATOM      2  C   LIG    1        0.002  -0.004   0.002  0.00  0.00    -0.140 A 
ATOM      3  C   LIG    1        0.006  -0.687  -1.200  0.00  0.00    +0.040 A 
ATOM      4  C   LIG    1        0.025  -2.068  -1.211  0.00  0.00    -0.070 A 
ATOM      5  C   LIG    1        0.041  -2.771  -0.013  0.00  0.00    +0.210 A 
ATOM      6  C   LIG    1        0.037  -2.081   1.193  0.00  0.00    -0.160 A 
ATOM      7  C   LIG    1        0.054  -2.839   2.495  0.00  0.00    +0.080 C 
ATOM      8  C   LIG    1        0.023  -0.700   1.197  0.00  0.00    +0.050 A 
ENDROOT
BRANCH   5   9
ATOM      9  N   LIG    1        0.060  -4.167  -0.021  0.00  0.00    -0.750 N 
ATOM     10  H   LIG    1        0.071  -4.657   0.817  0.00  0.00    +0.400 HD
BRANCH   9  11
ATOM     11  C   LIG    1        0.065  -4.893  -1.294  0.00  0.00    +0.250 C 
BRANCH  11  12
ATOM     12  C   LIG    1        0.087  -6.398  -1.022  0.00  0.00    -0.030 C 
ATOM     13  C   LIG    1       -1.311  -7.014  -0.846  0.00  0.00    +0.010 C 
ATOM     14  C   LIG    1       -0.798  -8.216  -1.657  0.00  0.00    +0.010 C 
ATOM     15  C   LIG    1        0.217  -7.252  -2.295  0.00  0.00    +0.020 C 
ENDBRANCH  11  12
ENDBRANCH   9  11
ENDBRANCH   5   9
TORSDOF 3
ENDMDL
MODEL      427
REMARK  Name = ZINC000083838662
REMARK                            x       y       z     vdW  Elec       q    Type
REMARK                         _______ _______ _______ _____ _____    ______ ____
ROOT
ATOM      1  C   LIG    1       -0.018   1.503   0.010  0.00  0.00    +0.080 C 
ATOM      2  C   LIG    1        0.002  -0.004   0.002  0.00  0.00    -0.120 A 
ATOM      3  C   LIG    1        0.006  -0.689  -1.197  0.00  0.00    +0.000 A 
ATOM      4  C   LIG    1        0.024  -2.071  -1.206  0.00  0.00    +0.000 A 
ATOM      5  C   LIG    1        0.039  -2.773  -0.014  0.00  0.00    +0.000 A 
ATOM      6  C   LIG    1        0.035  -2.095   1.188  0.00  0.00    -0.060 A 
ATOM      7  C   LIG    1        0.051  -2.860   2.486  0.00  0.00    +0.100 C 
ATOM      8  C   LIG    1        0.023  -0.706   1.201  0.00  0.00    +0.090 A 
ENDROOT
BRANCH   8   9
ATOM      9  N   LIG    1        0.019  -0.016   2.415  0.00  0.00    -0.640 N 
ATOM     10  H   LIG    1       -0.832   0.514   2.528  0.00  0.00    +0.350 HD
BRANCH   9  11
ATOM     11  C   LIG    1        1.200   0.851   2.532  0.00  0.00    +0.180 C 
BRANCH  11  12
ATOM     12  C   LIG    1        1.160   1.587   3.873  0.00  0.00    -0.020 C 
ATOM     13  C   LIG    1        1.806   0.802   5.026  0.00  0.00    +0.020 C 
ATOM     14  C   LIG    1        2.396   2.140   5.502  0.00  0.00    +0.000 C 
ATOM     15  C   LIG    1        2.291   2.615   4.044  0.00  0.00    +0.010 C 
ENDBRANCH  11  12
ENDBRANCH   9  11
ENDBRANCH   8   9
TORSDOF 3
ENDMDL
MODEL      428
REMARK  Name = ZINC000002124309
REMARK                            x       y       z     vdW  Elec       q    Type
REMARK                         _______ _______ _______ _____ _____    ______ ____
ROOT
ATOM      1  C   LIG    1       -0.019   1.534   0.011  0.00  0.00    +0.040 C 
ATOM      2  C   LIG    1        0.002  -0.004   0.002  0.00  0.00    +0.140 C 
ATOM      3  C   LIG    1        0.688  -0.476  -1.273  0.00  0.00    -0.020 C 
ATOM      4  C   LIG    1        1.122  -1.930  -1.225  0.00  0.00    +0.020 C 
ATOM      5  C   LIG    1        1.722  -2.368   0.104  0.00  0.00    -0.020 C 
ATOM      6  C   LIG    1        3.200  -2.047   0.215  0.00  0.00    -0.050 C 
ATOM      7  C   LIG    1        3.747  -2.420   1.598  0.00  0.00    +0.010 C 
ATOM      8  C   LIG    1        2.940  -1.718   2.687  0.00  0.00    +0.010 C 
ATOM      9  C   LIG    1        1.496  -2.211   2.617  0.00  0.00    +0.040 C 
ATOM     10  C   LIG    1        3.504  -0.575  -0.053  0.00  0.00    +0.030 C 
ATOM     11  C   LIG    1        3.976  -2.891  -0.817  0.00  0.00    +0.010 C 
ATOM     12  C   LIG    1        0.878  -1.860   1.264  0.00  0.00    +0.130 C 
ATOM     13  C   LIG    1       -0.498  -2.554   1.211  0.00  0.00    +0.000 C 
ATOM     14  O   LIG    1        0.691  -0.453   1.163  0.00  0.00    -0.360 OA
ENDROOT
TORSDOF 0
ENDMDL
MODEL      429
REMARK  Name = ZINC000083983292
REMARK                            x       y       z     vdW  Elec       q    Type
REMARK                         _______ _______ _______ _____ _____    ______ ____
ROOT
ATOM      1  C   LIG    1       -0.018   1.503   0.010  0.00  0.00    +0.110 C 
ATOM      2  C   LIG    1        0.002  -0.004   0.002  0.00  0.00    -0.080 A 
ATOM      3  C   LIG    1        0.006  -0.683  -1.199  0.00  0.00    -0.030 A 
ATOM      4  C   LIG    1        0.024  -2.067  -1.209  0.00  0.00    +0.010 A 
ATOM      5  C   LIG    1        0.034  -2.764  -0.018  0.00  0.00    +0.030 A 
ATOM      6  C   LIG    1        0.029  -2.088   1.192  0.00  0.00    -0.110 A 
ATOM      7  C   LIG    1        0.033  -2.903   2.461  0.00  0.00    +0.030 C 
ATOM      8  C   LIG    1        1.045  -4.044   2.338  0.00  0.00    +0.040 C 
ATOM      9  C   LIG    1        0.412  -2.013   3.646  0.00  0.00    +0.000 C 
ATOM     10  C   LIG    1       -0.413  -0.723   3.555  0.00  0.00    +0.230 C 
ATOM     11  N   LIG    1        0.035   0.040   2.389  0.00  0.00    -0.630 N 
ATOM     12  H   LIG    1        0.945   0.446   2.550  0.00  0.00    +0.360 HD
ATOM     13 CL   LIG    1       -0.011   0.198  -2.695  0.00  0.00    -0.070 Cl
ATOM     14  C   LIG    1        0.023  -0.704   1.210  0.00  0.00    +0.120 A 
ENDROOT
TORSDOF 0
ENDMDL
MODEL      430
REMARK  Name = ZINC000080602487
REMARK                            x       y       z     vdW  Elec       q    Type
REMARK                         _______ _______ _______ _____ _____    ______ ____
ROOT
ATOM      1  C   LIG    1        0.802  -2.356   1.291  0.00  0.00    -0.080 A 
ATOM      2  C   LIG    1        0.168  -2.915   0.189  0.00  0.00    -0.010 A 
ATOM      3  C   LIG    1        0.109  -4.288   0.050  0.00  0.00    +0.010 A 
ATOM      4  C   LIG    1        0.681  -5.106   1.008  0.00  0.00    +0.000 A 
ATOM      5  C   LIG    1        1.313  -4.553   2.107  0.00  0.00    +0.030 A 
ATOM      6  C   LIG    1        1.381  -3.181   2.248  0.00  0.00    -0.060 A 
ENDROOT
BRANCH   6   7
ATOM      7  C   LIG    1        2.070  -2.580   3.446  0.00  0.00    +0.020 C 
ATOM      8  C   LIG    1        3.533  -3.026   3.470  0.00  0.00    +0.040 C 
ATOM      9  C   LIG    1        1.372  -3.048   4.724  0.00  0.00    +0.040 C 
ENDBRANCH   6   7
BRANCH   1  10
ATOM     10  S   LIG    1        0.879  -0.605   1.472  0.00  0.00    -0.110 S 
BRANCH  10  12
ATOM     11  C   LIG    1       -0.019   1.526   0.010  0.00  0.00    +0.070 C 
ATOM     12  C   LIG    1        0.002  -0.004   0.002  0.00  0.00    +0.060 C 
ENDBRANCH  10  12
ENDBRANCH   1  10
TORSDOF 3
ENDMDL
MODEL      431
REMARK  Name = ZINC000248257495
REMARK                            x       y       z     vdW  Elec       q    Type
REMARK                         _______ _______ _______ _____ _____    ______ ____
ROOT
ATOM      1  C   LIG    1        0.999  -2.372  -1.659  0.00  0.00    -0.010 C 
ATOM      2  C   LIG    1        1.465  -2.635  -0.226  0.00  0.00    +0.010 C 
ENDROOT
BRANCH   1   3
ATOM      3  C   LIG    1        0.453  -0.946  -1.764  0.00  0.00    -0.010 C 
ATOM      4  C   LIG    1       -0.132  -0.726  -3.161  0.00  0.00    +0.010 C 
BRANCH   3   6
ATOM      5  C   LIG    1       -1.101   0.719  -0.735  0.00  0.00    +0.000 C 
ATOM      6  C   LIG    1       -0.641  -0.741  -0.715  0.00  0.00    +0.000 C 
ENDBRANCH   3   6
ENDBRANCH   1   3
BRANCH   1   7
ATOM      7  C   LIG    1        2.180  -2.537  -2.618  0.00  0.00    -0.020 C 
ATOM      8  C   LIG    1        2.442  -4.026  -2.852  0.00  0.00    +0.010 C 
BRANCH   7   9
ATOM      9  C   LIG    1        3.426  -1.890  -2.009  0.00  0.00    -0.020 C 
ATOM     10  C   LIG    1        3.226  -0.375  -1.928  0.00  0.00    +0.010 C 
ATOM     11  C   LIG    1        4.641  -2.198  -2.885  0.00  0.00    +0.010 C 
ENDBRANCH   7   9
ENDBRANCH   1   7
TORSDOF 4
ENDMDL
MODEL      432
REMARK  Name = ZINC000085210319
REMARK                            x       y       z     vdW  Elec       q    Type
REMARK                         _______ _______ _______ _____ _____    ______ ____
ROOT
ATOM      1  C   LIG    1       -0.018   1.503   0.010  0.00  0.00    +0.120 C 
ATOM      2  C   LIG    1        0.002  -0.004   0.002  0.00  0.00    -0.050 A 
ATOM      3  C   LIG    1        0.006  -0.688  -1.199  0.00  0.00    +0.050 A 
ATOM      4  C   LIG    1        0.025  -2.072  -1.207  0.00  0.00    -0.020 A 
ATOM      5  C   LIG    1        0.040  -2.771  -0.013  0.00  0.00    +0.050 A 
ATOM      6  C   LIG    1        0.036  -2.086   1.189  0.00  0.00    -0.020 A 
ATOM      7 CL   LIG    1        0.056  -2.963   2.687  0.00  0.00    -0.030 Cl
ATOM      8 CL   LIG    1        0.029  -2.931  -2.716  0.00  0.00    -0.050 Cl
ATOM      9  C   LIG    1        0.023  -0.702   1.196  0.00  0.00    -0.030 A 
ATOM     10 CL   LIG    1        0.018   0.158   2.704  0.00  0.00    -0.030 Cl
ENDROOT
TORSDOF 0
ENDMDL
MODEL      433
REMARK  Name = ZINC000085386021
REMARK                            x       y       z     vdW  Elec       q    Type
REMARK                         _______ _______ _______ _____ _____    ______ ____
ROOT
ATOM      1  C   LIG    1       -0.012   1.503   0.010  0.00  0.00    +0.110 C 
ATOM      2  C   LIG    1        0.005  -0.004   0.002  0.00  0.00    -0.080 A 
ATOM      3  C   LIG    1       -0.097  -0.686  -1.208  0.00  0.00    +0.050 A 
ATOM      4  C   LIG    1       -0.085  -2.047  -1.251  0.00  0.00    -0.020 A 
ATOM      5  C   LIG    1        0.033  -2.782  -0.057  0.00  0.00    +0.130 A 
ATOM      6  N   LIG    1        0.048  -4.118  -0.067  0.00  0.00    -0.460 NA
ATOM      7  C   LIG    1        0.158  -4.807   1.043  0.00  0.00    +0.290 A 
ATOM      8  C   LIG    1        0.263  -4.184   2.285  0.00  0.00    -0.030 A 
ATOM      9  C   LIG    1        0.254  -2.821   2.367  0.00  0.00    +0.080 A 
ATOM     10  C   LIG    1        0.136  -2.085   1.172  0.00  0.00    -0.090 A 
ATOM     11 CL   LIG    1       -0.213  -2.873  -2.773  0.00  0.00    -0.040 Cl
ATOM     12  C   LIG    1        0.126  -0.681   1.177  0.00  0.00    -0.060 A 
ATOM     13  C   LIG    1        0.242   0.073   2.477  0.00  0.00    +0.110 C 
ENDROOT
TORSDOF 0
ENDMDL
MODEL      434
REMARK  Name = ZINC000085385990
REMARK                            x       y       z     vdW  Elec       q    Type
REMARK                         _______ _______ _______ _____ _____    ______ ____
ROOT
ATOM      1  C   LIG    1       -0.018   1.503   0.010  0.00  0.00    +0.100 C 
ATOM      2  C   LIG    1        0.002  -0.004   0.002  0.00  0.00    -0.060 A 
ATOM      3  C   LIG    1        0.006  -0.682  -1.214  0.00  0.00    +0.040 A 
ATOM      4  C   LIG    1        0.024  -2.045  -1.255  0.00  0.00    -0.010 A 
ATOM      5  C   LIG    1        0.041  -2.774  -0.055  0.00  0.00    -0.110 A 
ATOM      6  C   LIG    1        0.061  -4.182  -0.052  0.00  0.00    +0.090 A 
ATOM      7  C   LIG    1        0.076  -4.824   1.153  0.00  0.00    -0.030 A 
ATOM      8  C   LIG    1        0.071  -4.086   2.334  0.00  0.00    +0.170 A 
ATOM      9  N   LIG    1        0.053  -2.775   2.329  0.00  0.00    -0.480 NA
ATOM     10  C   LIG    1        0.088  -4.813   3.654  0.00  0.00    +0.130 C 
ATOM     11  C   LIG    1        0.037  -2.085   1.184  0.00  0.00    +0.150 A 
ATOM     12 CL   LIG    1        0.029  -2.873  -2.781  0.00  0.00    -0.060 Cl
ATOM     13  C   LIG    1        0.022  -0.680   1.183  0.00  0.00    +0.050 A 
ENDROOT
TORSDOF 0
ENDMDL
MODEL      435
REMARK  Name = ZINC000085391913
REMARK                            x       y       z     vdW  Elec       q    Type
REMARK                         _______ _______ _______ _____ _____    ______ ____
ROOT
ATOM      1  C   LIG    1       -1.412  -0.526   0.013  0.00  0.00    -0.130 A 
ATOM      2  C   LIG    1       -1.902  -1.250  -1.087  0.00  0.00    +0.000 A 
ATOM      3  C   LIG    1       -1.095  -1.504  -2.210  0.00  0.00    +0.010 A 
ATOM      4  C   LIG    1       -1.602  -2.210  -3.257  0.00  0.00    +0.010 A 
ATOM      5  C   LIG    1       -2.911  -2.686  -3.235  0.00  0.00    -0.010 A 
ATOM      6  C   LIG    1       -3.721  -2.459  -2.164  0.00  0.00    +0.020 A 
ATOM      7  C   LIG    1       -3.233  -1.736  -1.065  0.00  0.00    -0.100 A 
ATOM      8  C   LIG    1       -4.043  -1.481   0.063  0.00  0.00    +0.230 A 
ATOM      9  C   LIG    1       -3.524  -0.766   1.121  0.00  0.00    -0.100 A 
ATOM     10  C   LIG    1       -2.213  -0.300   1.090  0.00  0.00    +0.060 A 
ENDROOT
BRANCH   1  12
ATOM     11  C   LIG    1       -0.019   1.526   0.005  0.00  0.00    +0.030 C 
ATOM     12  C   LIG    1        0.002  -0.004   0.002  0.00  0.00    +0.030 C 
ATOM     13  C   LIG    1        0.740  -0.506   1.244  0.00  0.00    +0.040 C 
ENDBRANCH   1  12
BRANCH   8  14
ATOM     14  N   LIG    1       -5.355  -1.948   0.106  0.00  0.00    -0.870 N 
ATOM     15  H   LIG    1       -5.907  -1.771   0.883  0.00  0.00    +0.400 HD
ATOM     16  H   LIG    1       -5.715  -2.451  -0.641  0.00  0.00    +0.400 HD
ENDBRANCH   8  14
TORSDOF 2
ENDMDL
MODEL      436
REMARK  Name = ZINC000085400343
REMARK                            x       y       z     vdW  Elec       q    Type
REMARK                         _______ _______ _______ _____ _____    ______ ____
ROOT
ATOM      1  C   LIG    1       -0.018   1.503   0.010  0.00  0.00    +0.100 C 
ATOM      2  C   LIG    1        0.002  -0.004   0.002  0.00  0.00    -0.080 A 
ATOM      3  C   LIG    1        0.005  -0.683  -1.215  0.00  0.00    +0.040 A 
ATOM      4  C   LIG    1        0.023  -2.044  -1.259  0.00  0.00    +0.030 A 
ATOM      5  C   LIG    1        0.039  -2.773  -0.062  0.00  0.00    -0.020 A 
ATOM      6  C   LIG    1        0.058  -4.181  -0.040  0.00  0.00    +0.000 A 
ATOM      7  C   LIG    1        0.073  -4.816   1.163  0.00  0.00    +0.120 A 
ATOM      8  N   LIG    1        0.070  -4.147   2.309  0.00  0.00    -0.480 NA
ATOM      9  C   LIG    1        0.053  -2.835   2.366  0.00  0.00    +0.220 A 
ATOM     10 CL   LIG    1        0.051  -2.031   3.905  0.00  0.00    -0.020 Cl
ATOM     11  C   LIG    1        0.094  -6.322   1.196  0.00  0.00    +0.140 C 
ATOM     12  C   LIG    1        0.036  -2.083   1.178  0.00  0.00    -0.100 A 
ATOM     13  C   LIG    1        0.022  -0.680   1.184  0.00  0.00    +0.050 A 
ENDROOT
TORSDOF 0
ENDMDL
MODEL      437
REMARK  Name = ZINC000521396125
REMARK                            x       y       z     vdW  Elec       q    Type
REMARK                         _______ _______ _______ _____ _____    ______ ____
ROOT
ATOM      1  C   LIG    1        1.508  -2.029  -0.023  0.00  0.00    +0.190 C 
ATOM      2  C   LIG    1        1.925  -2.504   1.357  0.00  0.00    +0.040 C 
ATOM      3  C   LIG    1        3.166  -2.963   1.178  0.00  0.00    -0.010 C 
ATOM      4  N   LIG    1        3.546  -2.828  -0.112  0.00  0.00    -0.150 NA
ATOM      5  N   LIG    1        2.691  -2.322  -0.850  0.00  0.00    -0.150 NA
ENDROOT
BRANCH   1   9
ATOM      6  C   LIG    1       -0.017   1.380   0.010  0.00  0.00    +0.010 A 
ATOM      7  C   LIG    1        1.185   1.958   0.001  0.00  0.00    -0.040 A 
ATOM      8  S   LIG    1        2.435   0.721  -0.017  0.00  0.00    +0.130 S 
ATOM      9  C   LIG    1        1.219  -0.550  -0.013  0.00  0.00    -0.160 A 
ATOM     10  C   LIG    1        0.002  -0.004   0.002  0.00  0.00    +0.020 A 
ENDBRANCH   1   9
BRANCH   3  11
ATOM     11  C   LIG    1        4.026  -3.552   2.267  0.00  0.00    +0.020 C 
ATOM     12  C   LIG    1        5.341  -4.212   1.848  0.00  0.00    +0.050 C 
ATOM     13  C   LIG    1        5.357  -2.861   2.567  0.00  0.00    +0.040 C 
ENDBRANCH   3  11
TORSDOF 2
ENDMDL
MODEL      438
REMARK  Name = ZINC000086315003
REMARK                            x       y       z     vdW  Elec       q    Type
REMARK                         _______ _______ _______ _____ _____    ______ ____
ROOT
ATOM      1  C   LIG    1       -3.073  -4.037   0.045  0.00  0.00    -0.170 A 
ATOM      2  C   LIG    1       -2.005  -4.933  -0.070  0.00  0.00    +0.050 A 
ATOM      3  C   LIG    1       -2.250  -6.289  -0.109  0.00  0.00    -0.010 A 
ATOM      4  C   LIG    1       -3.548  -6.764  -0.036  0.00  0.00    +0.050 A 
ATOM      5  C   LIG    1       -4.609  -5.884   0.078  0.00  0.00    -0.100 A 
ATOM      6  C   LIG    1       -6.019  -6.412   0.157  0.00  0.00    +0.090 C 
ATOM      7  C   LIG    1       -4.381  -4.525   0.125  0.00  0.00    -0.030 A 
ATOM      8  C   LIG    1       -5.538  -3.568   0.249  0.00  0.00    +0.110 C 
ENDROOT
BRANCH   1   9
ATOM      9  C   LIG    1       -2.820  -2.587   0.088  0.00  0.00    +0.390 C 
ATOM     10  O   LIG    1       -3.735  -1.819   0.297  0.00  0.00    -0.450 OA
BRANCH   9  11
ATOM     11  C   LIG    1       -1.426  -2.058  -0.127  0.00  0.00    +0.030 C 
BRANCH  11  12
ATOM     12  C   LIG    1       -1.439  -0.531  -0.032  0.00  0.00    +0.030 C 
BRANCH  12  14
ATOM     13  C   LIG    1       -0.036   1.532  -0.156  0.00  0.00    +0.000 C 
ATOM     14  C   LIG    1       -0.023   0.005  -0.251  0.00  0.00    -0.010 C 
ENDBRANCH  12  14
ENDBRANCH  11  12
ENDBRANCH   9  11
ENDBRANCH   1   9
TORSDOF 4
ENDMDL
MODEL      439
REMARK  Name = ZINC000086314988
REMARK                            x       y       z     vdW  Elec       q    Type
REMARK                         _______ _______ _______ _____ _____    ______ ____
ROOT
ATOM      1  C   LIG    1        1.596  -3.957  -2.747  0.00  0.00    -0.160 A 
ATOM      2  C   LIG    1        1.082  -4.881  -1.832  0.00  0.00    +0.050 A 
ATOM      3  C   LIG    1        1.229  -6.232  -2.066  0.00  0.00    -0.090 A 
ATOM      4  C   LIG    1        1.882  -6.674  -3.203  0.00  0.00    +0.040 A 
ATOM      5  C   LIG    1        2.393  -5.766  -4.114  0.00  0.00    -0.090 A 
ATOM      6  C   LIG    1        3.102  -6.259  -5.349  0.00  0.00    +0.090 C 
ATOM      7  C   LIG    1        0.675  -7.229  -1.081  0.00  0.00    +0.090 C 
ATOM      8  C   LIG    1        2.250  -4.412  -3.897  0.00  0.00    +0.060 A 
ENDROOT
BRANCH   1   9
ATOM      9  C   LIG    1        1.444  -2.513  -2.505  0.00  0.00    +0.400 C 
ATOM     10  O   LIG    1        1.887  -1.715  -3.303  0.00  0.00    -0.450 OA
BRANCH   9  11
ATOM     11  C   LIG    1        0.739  -2.027  -1.265  0.00  0.00    +0.030 C 
BRANCH  11  12
ATOM     12  C   LIG    1        0.718  -0.497  -1.257  0.00  0.00    +0.030 C 
BRANCH  12  14
ATOM     13  C   LIG    1       -0.019   1.526   0.010  0.00  0.00    +0.000 C 
ATOM     14  C   LIG    1        0.002  -0.004   0.002  0.00  0.00    +0.000 C 
ENDBRANCH  12  14
ENDBRANCH  11  12
ENDBRANCH   9  11
ENDBRANCH   1   9
TORSDOF 4
ENDMDL
MODEL      440
REMARK  Name = ZINC000086693070
REMARK                            x       y       z     vdW  Elec       q    Type
REMARK                         _______ _______ _______ _____ _____    ______ ____
ROOT
ATOM      1  C   LIG    1        1.596  -3.957  -2.747  0.00  0.00    -0.140 A 
ATOM      2  C   LIG    1        2.255  -4.412  -3.894  0.00  0.00    +0.070 A 
ATOM      3  C   LIG    1        2.395  -5.766  -4.114  0.00  0.00    -0.070 A 
ATOM      4  C   LIG    1        1.885  -6.675  -3.205  0.00  0.00    +0.010 A 
ATOM      5  C   LIG    1        1.230  -6.234  -2.066  0.00  0.00    +0.090 A 
ATOM      6  F   LIG    1        0.735  -7.129  -1.183  0.00  0.00    -0.130 F 
ATOM      7  C   LIG    1        3.105  -6.256  -5.350  0.00  0.00    +0.100 C 
ATOM      8  C   LIG    1        1.087  -4.881  -1.829  0.00  0.00    +0.030 A 
ENDROOT
BRANCH   1   9
ATOM      9  C   LIG    1        1.444  -2.513  -2.505  0.00  0.00    +0.400 C 
ATOM     10  O   LIG    1        1.887  -1.715  -3.303  0.00  0.00    -0.440 OA
BRANCH   9  11
ATOM     11  C   LIG    1        0.739  -2.027  -1.265  0.00  0.00    +0.030 C 
BRANCH  11  12
ATOM     12  C   LIG    1        0.718  -0.497  -1.257  0.00  0.00    +0.030 C 
BRANCH  12  14
ATOM     13  C   LIG    1       -0.019   1.526   0.010  0.00  0.00    +0.010 C 
ATOM     14  C   LIG    1        0.002  -0.004   0.002  0.00  0.00    -0.010 C 
ENDBRANCH  12  14
ENDBRANCH  11  12
ENDBRANCH   9  11
ENDBRANCH   1   9
TORSDOF 4
ENDMDL
MODEL      441
REMARK  Name = ZINC000001765498
REMARK                            x       y       z     vdW  Elec       q    Type
REMARK                         _______ _______ _______ _____ _____    ______ ____
ROOT
ATOM      1  C   LIG    1        2.500  -2.205  -2.326  0.00  0.00    -0.080 C 
ATOM      2  C   LIG    1        3.583  -2.872  -1.942  0.00  0.00    -0.110 C 
ENDROOT
BRANCH   1   4
ATOM      3  C   LIG    1        2.026  -0.619  -0.554  0.00  0.00    -0.040 C 
ATOM      4  C   LIG    1        1.602  -1.618  -1.320  0.00  0.00    -0.090 C 
BRANCH   3   6
ATOM      5  C   LIG    1        1.968  -0.138   1.878  0.00  0.00    +0.010 C 
ATOM      6  C   LIG    1        1.164  -0.119   0.577  0.00  0.00    +0.040 C 
ENDBRANCH   3   6
BRANCH   4   7
ATOM      7  C   LIG    1        0.201  -2.149  -1.159  0.00  0.00    +0.050 C 
ATOM      8  C   LIG    1        0.220  -3.363  -0.228  0.00  0.00    +0.020 C 
ENDBRANCH   4   7
ENDBRANCH   1   4
BRANCH   2   9
ATOM      9  C   LIG    1        4.572  -3.360  -2.969  0.00  0.00    +0.050 C 
ATOM     10  C   LIG    1        5.701  -2.337  -3.115  0.00  0.00    +0.010 C 
ENDBRANCH   2   9
BRANCH   1  11
ATOM     11  C   LIG    1        2.192  -2.051  -3.793  0.00  0.00    +0.060 C 
ATOM     12  C   LIG    1        1.223  -3.151  -4.230  0.00  0.00    +0.030 C 
ENDBRANCH   1  11
BRANCH   2  13
ATOM     13  C   LIG    1        3.822  -3.141  -0.478  0.00  0.00    +0.220 C 
BRANCH  13  14
ATOM     14  O   LIG    1        3.960  -4.548  -0.268  0.00  0.00    -0.570 OA
ATOM     15  H   LIG    1        4.040  -4.801   0.661  0.00  0.00    +0.380 HD
ENDBRANCH  13  14
ENDBRANCH   2  13
TORSDOF 7
ENDMDL
MODEL      442
REMARK  Name = ZINC000090377582
REMARK                            x       y       z     vdW  Elec       q    Type
REMARK                         _______ _______ _______ _____ _____    ______ ____
ROOT
ATOM      1  C   LIG    1       -0.019   1.526   0.010  0.00  0.00    +0.030 C 
ATOM      2  C   LIG    1        0.002  -0.004   0.002  0.00  0.00    +0.030 C 
ATOM      3  C   LIG    1       -1.433  -0.527  -0.001  0.00  0.00    +0.020 C 
ATOM      4  C   LIG    1       -1.395  -2.045   0.210  0.00  0.00    +0.030 C 
ATOM      5  C   LIG    1       -0.955  -2.322   1.646  0.00  0.00    -0.030 C 
ATOM      6  C   LIG    1        0.309  -1.567   1.967  0.00  0.00    -0.060 A 
ATOM      7  C   LIG    1        1.049  -1.983   3.066  0.00  0.00    +0.000 A 
ATOM      8  C   LIG    1        2.212  -1.329   3.415  0.00  0.00    +0.000 A 
ATOM      9  C   LIG    1        2.646  -0.251   2.666  0.00  0.00    +0.000 A 
ATOM     10  C   LIG    1        1.913   0.162   1.572  0.00  0.00    +0.000 A 
ATOM     11  C   LIG    1       -0.703  -3.822   1.816  0.00  0.00    +0.040 C 
ATOM     12  C   LIG    1       -2.062  -1.884   2.607  0.00  0.00    +0.040 C 
ATOM     13  C   LIG    1        0.743  -0.497   1.217  0.00  0.00    -0.070 A 
ENDROOT
TORSDOF 0
ENDMDL
MODEL      443
REMARK  Name = ZINC000095862988
REMARK                            x       y       z     vdW  Elec       q    Type
REMARK                         _______ _______ _______ _____ _____    ______ ____
ROOT
ATOM      1  C   LIG    1       -0.019   1.526   0.010  0.00  0.00    +0.030 C 
ATOM      2  C   LIG    1        0.002  -0.004   0.002  0.00  0.00    -0.010 C 
ATOM      3  C   LIG    1        0.727  -0.502  -1.247  0.00  0.00    +0.070 C 
ATOM      4  C   LIG    1        0.956  -1.989  -1.169  0.00  0.00    -0.070 A 
ATOM      5  C   LIG    1        1.249  -2.660  -2.348  0.00  0.00    +0.000 A 
ATOM      6  C   LIG    1        1.474  -4.022  -2.342  0.00  0.00    +0.000 A 
ATOM      7  C   LIG    1        1.409  -4.723  -1.153  0.00  0.00    +0.000 A 
ATOM      8  C   LIG    1        1.115  -4.058   0.020  0.00  0.00    +0.000 A 
ATOM      9  C   LIG    1        0.885  -2.688   0.015  0.00  0.00    -0.060 A 
ATOM     10  C   LIG    1        0.554  -2.028   1.328  0.00  0.00    -0.030 C 
ATOM     11  C   LIG    1        1.467  -2.591   2.420  0.00  0.00    +0.040 C 
ATOM     12  C   LIG    1       -0.903  -2.323   1.688  0.00  0.00    +0.040 C 
ATOM     13  C   LIG    1        0.754  -0.517   1.236  0.00  0.00    +0.040 C 
ENDROOT
TORSDOF 0
ENDMDL
MODEL      444
REMARK  Name = ZINC000088187499
REMARK                            x       y       z     vdW  Elec       q    Type
REMARK                         _______ _______ _______ _____ _____    ______ ____
ROOT
ATOM      1  C   LIG    1       -1.412  -0.526   0.013  0.00  0.00    -0.060 A 
ATOM      2  C   LIG    1       -2.257  -0.202   1.058  0.00  0.00    +0.010 A 
ATOM      3  C   LIG    1       -3.553  -0.677   1.073  0.00  0.00    +0.050 A 
ATOM      4  C   LIG    1       -4.009  -1.483   0.032  0.00  0.00    -0.060 A 
ATOM      5  C   LIG    1       -3.153  -1.806  -1.019  0.00  0.00    +0.030 A 
ATOM      6  C   LIG    1       -1.861  -1.321  -1.026  0.00  0.00    +0.010 A 
ENDROOT
BRANCH   4   7
ATOM      7  C   LIG    1       -5.401  -1.996   0.042  0.00  0.00    +0.170 A 
ATOM      8  C   LIG    1       -5.847  -2.806  -1.000  0.00  0.00    -0.030 A 
ATOM      9  C   LIG    1       -7.148  -3.277  -0.977  0.00  0.00    +0.070 A 
ATOM     10  C   LIG    1       -7.962  -2.921   0.089  0.00  0.00    -0.040 A 
ATOM     11  C   LIG    1       -7.455  -2.114   1.090  0.00  0.00    +0.270 A 
ATOM     12  N   LIG    1       -6.210  -1.684   1.046  0.00  0.00    -0.480 NA
ENDBRANCH   4   7
BRANCH   1  14
ATOM     13  C   LIG    1       -0.019   1.526   0.010  0.00  0.00    +0.030 C 
ATOM     14  C   LIG    1        0.002  -0.004   0.002  0.00  0.00    +0.020 C 
ATOM     15  C   LIG    1        0.742  -0.511   1.242  0.00  0.00    +0.030 C 
ENDBRANCH   1  14
TORSDOF 2
ENDMDL
MODEL      445
REMARK  Name = ZINC000088187501
REMARK                            x       y       z     vdW  Elec       q    Type
REMARK                         _______ _______ _______ _____ _____    ______ ____
ROOT
ATOM      1  C   LIG    1        0.731  -0.503   1.223  0.00  0.00    -0.080 A 
ATOM      2  C   LIG    1        2.051  -0.147   1.433  0.00  0.00    +0.020 A 
ATOM      3  C   LIG    1        2.726  -0.602   2.551  0.00  0.00    +0.010 A 
ATOM      4  C   LIG    1        2.085  -1.414   3.465  0.00  0.00    +0.020 A 
ATOM      5  C   LIG    1        0.755  -1.776   3.258  0.00  0.00    -0.050 A 
ATOM      6  C   LIG    1        0.078  -1.311   2.133  0.00  0.00    +0.050 A 
ENDROOT
BRANCH   5   7
ATOM      7  C   LIG    1        0.061  -2.649   4.236  0.00  0.00    +0.170 A 
ATOM      8  C   LIG    1        0.707  -3.015   5.415  0.00  0.00    -0.020 A 
ATOM      9  C   LIG    1        0.046  -3.830   6.319  0.00  0.00    +0.070 A 
ATOM     10  C   LIG    1       -1.239  -4.253   6.012  0.00  0.00    -0.040 A 
ATOM     11  C   LIG    1       -1.820  -3.851   4.823  0.00  0.00    +0.270 A 
ATOM     12  N   LIG    1       -1.171  -3.070   3.983  0.00  0.00    -0.480 NA
ENDBRANCH   5   7
BRANCH   1  14
ATOM     13  C   LIG    1       -0.019   1.526   0.010  0.00  0.00    +0.040 C 
ATOM     14  C   LIG    1        0.002  -0.004   0.002  0.00  0.00    +0.020 C 
ATOM     15  C   LIG    1        0.718  -0.497  -1.257  0.00  0.00    +0.040 C 
ENDBRANCH   1  14
TORSDOF 2
ENDMDL
MODEL      446
REMARK  Name = ZINC000095611680
REMARK                            x       y       z     vdW  Elec       q    Type
REMARK                         _______ _______ _______ _____ _____    ______ ____
ROOT
ATOM      1  C   LIG    1       -0.054   1.323   0.113  0.00  0.00    +0.070 C 
ATOM      2  C   LIG    1        0.207  -0.155  -0.018  0.00  0.00    -0.120 C 
ATOM      3  C   LIG    1        0.128  -0.733  -1.192  0.00  0.00    -0.120 C 
ATOM      4  C   LIG    1        0.277  -2.228  -1.505  0.00  0.00    +0.020 C 
ATOM      5  C   LIG    1        1.644  -2.339  -2.246  0.00  0.00    +0.010 C 
ATOM      6  C   LIG    1        1.396  -1.679  -3.622  0.00  0.00    +0.000 C 
ATOM      7  C   LIG    1       -0.096  -1.226  -3.574  0.00  0.00    +0.010 C 
ATOM      8  C   LIG    1       -0.735  -2.382  -2.695  0.00  0.00    +0.020 C 
ATOM      9  C   LIG    1       -0.137  -0.065  -2.533  0.00  0.00    -0.030 C 
ATOM     10  C   LIG    1        0.974   0.947  -2.820  0.00  0.00    +0.020 C 
ATOM     11  C   LIG    1       -1.504   0.623  -2.557  0.00  0.00    +0.040 C 
ATOM     12  C   LIG    1        0.558  -0.970   1.200  0.00  0.00    +0.070 C 
ENDROOT
TORSDOF 0
ENDMDL
MODEL      447
REMARK  Name = ZINC000095147710
REMARK                            x       y       z     vdW  Elec       q    Type
REMARK                         _______ _______ _______ _____ _____    ______ ____
ROOT
ATOM      1  C   LIG    1        0.826  -0.548  -4.094  0.00  0.00    +0.130 C 
ENDROOT
BRANCH   1   2
ATOM      2  C   LIG    1        0.159  -0.217  -5.404  0.00  0.00    -0.080 A 
ATOM      3  C   LIG    1       -0.682  -1.136  -6.003  0.00  0.00    +0.020 A 
ATOM      4  C   LIG    1       -1.295  -0.832  -7.204  0.00  0.00    +0.000 A 
ATOM      5  C   LIG    1       -1.066   0.391  -7.807  0.00  0.00    +0.010 A 
ATOM      6  C   LIG    1       -0.225   1.310  -7.207  0.00  0.00    +0.000 A 
ATOM      7  C   LIG    1        0.384   1.008  -6.003  0.00  0.00    +0.020 A 
ENDBRANCH   1   2
BRANCH   1   8
ATOM      8  S   LIG    1       -0.239  -0.022  -2.723  0.00  0.00    -0.240 S 
BRANCH   8   9
ATOM      9  C   LIG    1        0.718  -0.497  -1.257  0.00  0.00    +0.030 C 
ATOM     10  C   LIG    1        0.849  -2.021  -1.205  0.00  0.00    +0.050 C 
BRANCH   9  12
ATOM     11  C   LIG    1       -0.019   1.526   0.010  0.00  0.00    +0.020 C 
ATOM     12  C   LIG    1        0.002  -0.004   0.002  0.00  0.00    +0.050 C 
ENDBRANCH   9  12
ENDBRANCH   8   9
ENDBRANCH   1   8
TORSDOF 4
ENDMDL
MODEL      448
REMARK  Name = ZINC000095729742
REMARK                            x       y       z     vdW  Elec       q    Type
REMARK                         _______ _______ _______ _____ _____    ______ ____
ROOT
ATOM      1  C   LIG    1       -1.477  -2.380   0.003  0.00  0.00    -0.060 A 
ATOM      2  C   LIG    1       -0.196  -2.918  -0.006  0.00  0.00    -0.010 A 
ATOM      3  C   LIG    1       -0.021  -4.289  -0.015  0.00  0.00    +0.050 A 
ATOM      4  C   LIG    1       -1.117  -5.129  -0.015  0.00  0.00    -0.010 A 
ATOM      5  C   LIG    1       -2.402  -4.597  -0.005  0.00  0.00    -0.070 A 
ATOM      6  C   LIG    1       -2.582  -3.221   0.009  0.00  0.00    +0.050 A 
ENDROOT
BRANCH   5   7
ATOM      7  S   LIG    1       -3.800  -5.670  -0.005  0.00  0.00    -0.110 S 
ATOM      8  C   LIG    1       -3.048  -7.320  -0.019  0.00  0.00    +0.140 C 
ENDBRANCH   5   7
BRANCH   1   9
ATOM      9  S   LIG    1       -1.700  -0.632   0.015  0.00  0.00    -0.110 S 
BRANCH   9  11
ATOM     10  C   LIG    1       -0.019   1.526   0.010  0.00  0.00    +0.080 C 
ATOM     11  C   LIG    1        0.002  -0.004   0.002  0.00  0.00    +0.070 C 
ENDBRANCH   9  11
ENDBRANCH   1   9
TORSDOF 3
ENDMDL
MODEL      449
REMARK  Name = ZINC000095729669
REMARK                            x       y       z     vdW  Elec       q    Type
REMARK                         _______ _______ _______ _____ _____    ______ ____
ROOT
ATOM      1  C   LIG    1        0.777  -2.342  -1.327  0.00  0.00    -0.090 A 
ATOM      2  C   LIG    1        0.153  -2.911  -0.224  0.00  0.00    +0.020 A 
ATOM      3  C   LIG    1        0.096  -4.285  -0.096  0.00  0.00    +0.050 A 
ATOM      4  C   LIG    1        0.661  -5.097  -1.071  0.00  0.00    -0.090 A 
ATOM      5  C   LIG    1        1.283  -4.528  -2.175  0.00  0.00    +0.020 A 
ATOM      6  C   LIG    1        1.338  -3.155  -2.304  0.00  0.00    +0.050 A 
ENDROOT
BRANCH   4   7
ATOM      7  S   LIG    1        0.587  -6.850  -0.907  0.00  0.00    -0.110 S 
ATOM      8  C   LIG    1        1.443  -7.435  -2.396  0.00  0.00    +0.140 C 
ENDBRANCH   4   7
BRANCH   1   9
ATOM      9  S   LIG    1        0.851  -0.589  -1.490  0.00  0.00    -0.120 S 
BRANCH   9  11
ATOM     10  C   LIG    1       -0.019   1.526   0.010  0.00  0.00    +0.080 C 
ATOM     11  C   LIG    1        0.002  -0.004   0.002  0.00  0.00    +0.070 C 
ENDBRANCH   9  11
ENDBRANCH   1   9
TORSDOF 3
ENDMDL
MODEL      450
REMARK  Name = ZINC000095729759
REMARK                            x       y       z     vdW  Elec       q    Type
REMARK                         _______ _______ _______ _____ _____    ______ ____
ROOT
ATOM      1  C   LIG    1        0.802  -2.356   1.291  0.00  0.00    -0.080 A 
ATOM      2  C   LIG    1        0.168  -2.915   0.188  0.00  0.00    +0.000 A 
ATOM      3  C   LIG    1        0.109  -4.288   0.049  0.00  0.00    +0.050 A 
ATOM      4  C   LIG    1        0.681  -5.107   1.006  0.00  0.00    +0.030 A 
ATOM      5  C   LIG    1        1.313  -4.554   2.106  0.00  0.00    -0.020 A 
ATOM      6 CL   LIG    1        2.029  -5.586   3.304  0.00  0.00    -0.060 Cl
ATOM      7  C   LIG    1        1.381  -3.181   2.248  0.00  0.00    -0.060 A 
ATOM      8  C   LIG    1        2.070  -2.579   3.446  0.00  0.00    +0.120 C 
ENDROOT
BRANCH   1   9
ATOM      9  S   LIG    1        0.879  -0.605   1.472  0.00  0.00    -0.100 S 
BRANCH   9  11
ATOM     10  C   LIG    1       -0.019   1.526   0.010  0.00  0.00    +0.080 C 
ATOM     11  C   LIG    1        0.002  -0.004   0.002  0.00  0.00    +0.060 C 
ENDBRANCH   9  11
ENDBRANCH   1   9
TORSDOF 2
ENDMDL
MODEL      451
REMARK  Name = ZINC000095729715
REMARK                            x       y       z     vdW  Elec       q    Type
REMARK                         _______ _______ _______ _____ _____    ______ ____
ROOT
ATOM      1  C   LIG    1       -1.477  -2.380   0.003  0.00  0.00    -0.050 A 
ATOM      2  C   LIG    1       -0.197  -2.918  -0.006  0.00  0.00    -0.030 A 
ATOM      3  C   LIG    1       -0.026  -4.291  -0.015  0.00  0.00    +0.140 A 
ATOM      4  C   LIG    1       -1.129  -5.127  -0.015  0.00  0.00    -0.010 A 
ATOM      5  C   LIG    1       -2.406  -4.593  -0.006  0.00  0.00    +0.010 A 
ATOM      6 CL   LIG    1       -3.787  -5.645  -0.006  0.00  0.00    -0.050 Cl
ATOM      7  F   LIG    1        1.219  -4.816  -0.024  0.00  0.00    -0.130 F 
ATOM      8  C   LIG    1       -2.583  -3.222   0.009  0.00  0.00    +0.050 A 
ENDROOT
BRANCH   1   9
ATOM      9  S   LIG    1       -1.700  -0.632   0.015  0.00  0.00    -0.080 S 
BRANCH   9  11
ATOM     10  C   LIG    1       -0.019   1.526   0.010  0.00  0.00    +0.080 C 
ATOM     11  C   LIG    1        0.002  -0.004   0.002  0.00  0.00    +0.060 C 
ENDBRANCH   9  11
ENDBRANCH   1   9
TORSDOF 2
ENDMDL
MODEL      452
REMARK  Name = ZINC000095729790
REMARK                            x       y       z     vdW  Elec       q    Type
REMARK                         _______ _______ _______ _____ _____    ______ ____
ROOT
ATOM      1  C   LIG    1       -1.477  -2.380   0.003  0.00  0.00    -0.080 A 
ATOM      2  C   LIG    1       -0.197  -2.919  -0.006  0.00  0.00    +0.000 A 
ATOM      3  C   LIG    1       -0.026  -4.289  -0.015  0.00  0.00    +0.060 A 
ATOM      4  C   LIG    1       -1.128  -5.125  -0.014  0.00  0.00    -0.050 A 
ATOM      5  C   LIG    1       -2.405  -4.591  -0.004  0.00  0.00    -0.050 A 
ATOM      6  C   LIG    1       -3.603  -5.506  -0.003  0.00  0.00    +0.110 C 
ATOM      7 CL   LIG    1       -0.909  -6.847  -0.025  0.00  0.00    -0.060 Cl
ATOM      8  C   LIG    1       -2.583  -3.222   0.009  0.00  0.00    +0.050 A 
ENDROOT
BRANCH   1   9
ATOM      9  S   LIG    1       -1.700  -0.632   0.015  0.00  0.00    -0.110 S 
BRANCH   9  11
ATOM     10  C   LIG    1       -0.019   1.526   0.010  0.00  0.00    +0.080 C 
ATOM     11  C   LIG    1        0.002  -0.004   0.002  0.00  0.00    +0.070 C 
ENDBRANCH   9  11
ENDBRANCH   1   9
TORSDOF 2
ENDMDL
MODEL      453
REMARK  Name = ZINC000095729723
REMARK                            x       y       z     vdW  Elec       q    Type
REMARK                         _______ _______ _______ _____ _____    ______ ____
ROOT
ATOM      1  C   LIG    1        0.777  -2.342  -1.327  0.00  0.00    -0.080 A 
ATOM      2  C   LIG    1        0.154  -2.913  -0.225  0.00  0.00    +0.010 A 
ATOM      3  C   LIG    1        0.097  -4.288  -0.100  0.00  0.00    -0.020 A 
ATOM      4  C   LIG    1        0.661  -5.096  -1.073  0.00  0.00    +0.030 A 
ATOM      5  C   LIG    1        1.283  -4.530  -2.171  0.00  0.00    +0.050 A 
ATOM      6 CL   LIG    1       -0.682  -5.003   1.276  0.00  0.00    -0.070 Cl
ATOM      7  C   LIG    1        1.337  -3.157  -2.304  0.00  0.00    -0.060 A 
ATOM      8  C   LIG    1        2.015  -2.542  -3.501  0.00  0.00    +0.100 C 
ENDROOT
BRANCH   1   9
ATOM      9  S   LIG    1        0.851  -0.589  -1.490  0.00  0.00    -0.100 S 
BRANCH   9  11
ATOM     10  C   LIG    1       -0.019   1.526   0.010  0.00  0.00    +0.080 C 
ATOM     11  C   LIG    1        0.002  -0.004   0.002  0.00  0.00    +0.060 C 
ENDBRANCH   9  11
ENDBRANCH   1   9
TORSDOF 2
ENDMDL
MODEL      454
REMARK  Name = ZINC000095739851
REMARK                            x       y       z     vdW  Elec       q    Type
REMARK                         _______ _______ _______ _____ _____    ______ ____
ROOT
ATOM      1  C   LIG    1       -1.708  -1.861  -0.530  0.00  0.00    -0.170 A 
ATOM      2  C   LIG    1       -0.678  -2.651  -1.052  0.00  0.00    +0.050 A 
ATOM      3  C   LIG    1       -0.964  -3.902  -1.559  0.00  0.00    +0.000 A 
ATOM      4  C   LIG    1       -2.264  -4.375  -1.553  0.00  0.00    +0.050 A 
ATOM      5  C   LIG    1       -3.288  -3.598  -1.038  0.00  0.00    -0.090 A 
ATOM      6  C   LIG    1       -3.018  -2.349  -0.522  0.00  0.00    +0.070 A 
ENDROOT
BRANCH   5   7
ATOM      7  C   LIG    1       -4.701  -4.123  -1.037  0.00  0.00    +0.020 C 
ATOM      8  C   LIG    1       -4.765  -5.413  -0.216  0.00  0.00    +0.030 C 
ATOM      9  C   LIG    1       -5.140  -4.411  -2.474  0.00  0.00    +0.030 C 
ENDBRANCH   5   7
BRANCH   1  10
ATOM     10  C   LIG    1       -1.412  -0.526   0.013  0.00  0.00    +0.400 C 
ATOM     11  O   LIG    1       -2.306   0.155   0.469  0.00  0.00    -0.450 OA
BRANCH  10  13
ATOM     12  C   LIG    1       -0.019   1.526   0.010  0.00  0.00    +0.050 C 
ATOM     13  C   LIG    1        0.002  -0.004   0.002  0.00  0.00    -0.040 C 
ATOM     14  C   LIG    1        0.742  -0.511   1.242  0.00  0.00    +0.050 C 
ENDBRANCH  10  13
ENDBRANCH   1  10
TORSDOF 3
ENDMDL
MODEL      455
REMARK  Name = ZINC000095729710
REMARK                            x       y       z     vdW  Elec       q    Type
REMARK                         _______ _______ _______ _____ _____    ______ ____
ROOT
ATOM      1  C   LIG    1       -1.477  -2.380   0.003  0.00  0.00    -0.050 A 
ATOM      2  C   LIG    1       -0.197  -2.918  -0.006  0.00  0.00    +0.000 A 
ATOM      3  C   LIG    1       -0.024  -4.289  -0.015  0.00  0.00    +0.090 A 
ATOM      4  C   LIG    1       -1.125  -5.126  -0.014  0.00  0.00    -0.080 A 
ATOM      5  C   LIG    1       -2.405  -4.593  -0.004  0.00  0.00    +0.130 A 
ATOM      6  F   LIG    1       -3.478  -5.413  -0.004  0.00  0.00    -0.120 F 
ATOM      7 CL   LIG    1       -0.904  -6.848  -0.025  0.00  0.00    -0.040 Cl
ATOM      8  C   LIG    1       -2.583  -3.222   0.009  0.00  0.00    +0.020 A 
ENDROOT
BRANCH   1   9
ATOM      9  S   LIG    1       -1.700  -0.632   0.015  0.00  0.00    -0.090 S 
BRANCH   9  11
ATOM     10  C   LIG    1       -0.019   1.526   0.010  0.00  0.00    +0.080 C 
ATOM     11  C   LIG    1        0.002  -0.004   0.002  0.00  0.00    +0.060 C 
ENDBRANCH   9  11
ENDBRANCH   1   9
TORSDOF 2
ENDMDL
MODEL      456
REMARK  Name = ZINC000095729695
REMARK                            x       y       z     vdW  Elec       q    Type
REMARK                         _______ _______ _______ _____ _____    ______ ____
ROOT
ATOM      1  C   LIG    1       -1.471  -2.417   0.443  0.00  0.00    -0.040 A 
ATOM      2  C   LIG    1       -0.216  -2.978   0.646  0.00  0.00    -0.050 A 
ATOM      3  C   LIG    1       -0.061  -4.351   0.630  0.00  0.00    +0.070 A 
ATOM      4  C   LIG    1       -1.153  -5.169   0.412  0.00  0.00    -0.090 A 
ATOM      5  C   LIG    1       -2.409  -4.615   0.210  0.00  0.00    +0.150 A 
ATOM      6  C   LIG    1       -2.570  -3.239   0.230  0.00  0.00    +0.000 A 
ENDROOT
BRANCH   1   7
ATOM      7  S   LIG    1       -1.669  -0.666   0.464  0.00  0.00    -0.110 S 
BRANCH   7   9
ATOM      8  C   LIG    1        0.014   1.461   0.817  0.00  0.00    +0.080 C 
ATOM      9  C   LIG    1        0.016  -0.069   0.770  0.00  0.00    +0.070 C 
ENDBRANCH   7   9
ENDBRANCH   1   7
BRANCH   5  10
ATOM     10  O   LIG    1       -3.482  -5.422  -0.003  0.00  0.00    -0.310 OA
BRANCH  10  11
ATOM     11  C   LIG    1       -3.226  -6.823  -0.123  0.00  0.00    +0.150 C 
ATOM     12  C   LIG    1       -4.344  -7.477  -0.938  0.00  0.00    +0.070 C 
ATOM     13  C   LIG    1       -3.175  -7.453   1.270  0.00  0.00    +0.020 C 
ENDBRANCH  10  11
ENDBRANCH   5  10
TORSDOF 4
ENDMDL
MODEL      457
REMARK  Name = ZINC000095729755
REMARK                            x       y       z     vdW  Elec       q    Type
REMARK                         _______ _______ _______ _____ _____    ______ ____
ROOT
ATOM      1  C   LIG    1        0.592  -2.361  -1.442  0.00  0.00    -0.120 A 
ATOM      2  C   LIG    1       -0.029  -2.932  -0.340  0.00  0.00    +0.030 A 
ATOM      3  C   LIG    1        0.101  -4.287  -0.098  0.00  0.00    -0.010 A 
ATOM      4  C   LIG    1        0.849  -5.076  -0.952  0.00  0.00    +0.050 A 
ATOM      5  C   LIG    1        1.470  -4.514  -2.053  0.00  0.00    -0.060 A 
ATOM      6  C   LIG    1        1.340  -3.159  -2.306  0.00  0.00    +0.150 A 
ENDROOT
BRANCH   1   7
ATOM      7  S   LIG    1        0.428  -0.635  -1.753  0.00  0.00    -0.090 S 
BRANCH   7   9
ATOM      8  C   LIG    1       -0.851   1.436  -0.505  0.00  0.00    +0.070 C 
ATOM      9  C   LIG    1       -0.612  -0.070  -0.378  0.00  0.00    +0.060 C 
ENDBRANCH   7   9
ENDBRANCH   1   7
BRANCH   6  10
ATOM     10  O   LIG    1        1.950  -2.606  -3.388  0.00  0.00    -0.300 OA
BRANCH  10  11
ATOM     11  C   LIG    1        2.610  -3.499  -4.288  0.00  0.00    +0.150 C 
ATOM     12  C   LIG    1        4.026  -3.780  -3.782  0.00  0.00    +0.020 C 
ATOM     13  C   LIG    1        2.682  -2.862  -5.677  0.00  0.00    +0.070 C 
ENDBRANCH  10  11
ENDBRANCH   6  10
TORSDOF 4
ENDMDL
MODEL      458
REMARK  Name = ZINC000095729692
REMARK                            x       y       z     vdW  Elec       q    Type
REMARK                         _______ _______ _______ _____ _____    ______ ____
ROOT
ATOM      1  C   LIG    1        0.777  -2.342  -1.327  0.00  0.00    -0.090 A 
ATOM      2  C   LIG    1        0.154  -2.913  -0.224  0.00  0.00    -0.010 A 
ATOM      3  C   LIG    1        0.098  -4.287  -0.100  0.00  0.00    -0.070 A 
ATOM      4  C   LIG    1        0.661  -5.095  -1.071  0.00  0.00    -0.090 A 
ATOM      5  C   LIG    1        1.282  -4.530  -2.170  0.00  0.00    +0.030 A 
ATOM      6  C   LIG    1        0.597  -6.594  -0.931  0.00  0.00    +0.090 C 
ATOM      7  C   LIG    1       -0.578  -4.908   1.096  0.00  0.00    +0.080 C 
ATOM      8  C   LIG    1        1.337  -3.157  -2.304  0.00  0.00    -0.070 A 
ATOM      9  C   LIG    1        2.014  -2.542  -3.502  0.00  0.00    +0.090 C 
ENDROOT
BRANCH   1  10
ATOM     10  S   LIG    1        0.851  -0.589  -1.490  0.00  0.00    -0.110 S 
BRANCH  10  12
ATOM     11  C   LIG    1       -0.019   1.526   0.010  0.00  0.00    +0.070 C 
ATOM     12  C   LIG    1        0.002  -0.004   0.002  0.00  0.00    +0.060 C 
ENDBRANCH  10  12
ENDBRANCH   1  10
TORSDOF 2
ENDMDL
MODEL      459
REMARK  Name = ZINC000095729686
REMARK                            x       y       z     vdW  Elec       q    Type
REMARK                         _______ _______ _______ _____ _____    ______ ____
ROOT
ATOM      1  C   LIG    1       -1.477  -2.380   0.003  0.00  0.00    -0.090 A 
ATOM      2  C   LIG    1       -0.197  -2.918  -0.006  0.00  0.00    +0.040 A 
ATOM      3  C   LIG    1       -0.025  -4.289  -0.015  0.00  0.00    +0.030 A 
ATOM      4  C   LIG    1       -1.127  -5.126  -0.015  0.00  0.00    +0.100 A 
ATOM      5  C   LIG    1       -2.406  -4.592  -0.005  0.00  0.00    -0.060 A 
ATOM      6 CL   LIG    1       -3.786  -5.645  -0.004  0.00  0.00    -0.040 Cl
ATOM      7  F   LIG    1       -0.955  -6.466  -0.024  0.00  0.00    -0.120 F 
ATOM      8  C   LIG    1       -2.583  -3.222   0.009  0.00  0.00    +0.080 A 
ENDROOT
BRANCH   1   9
ATOM      9  S   LIG    1       -1.700  -0.632   0.015  0.00  0.00    -0.090 S 
BRANCH   9  11
ATOM     10  C   LIG    1       -0.019   1.526   0.010  0.00  0.00    +0.080 C 
ATOM     11  C   LIG    1        0.002  -0.004   0.002  0.00  0.00    +0.060 C 
ENDBRANCH   9  11
ENDBRANCH   1   9
TORSDOF 2
ENDMDL
MODEL      460
REMARK  Name = ZINC000095729776
REMARK                            x       y       z     vdW  Elec       q    Type
REMARK                         _______ _______ _______ _____ _____    ______ ____
ROOT
ATOM      1  C   LIG    1       -1.477  -2.380   0.003  0.00  0.00    -0.090 A 
ATOM      2  C   LIG    1       -0.197  -2.919  -0.006  0.00  0.00    +0.010 A 
ATOM      3  C   LIG    1       -0.026  -4.289  -0.015  0.00  0.00    +0.040 A 
ATOM      4  C   LIG    1       -1.128  -5.125  -0.014  0.00  0.00    -0.040 A 
ATOM      5  C   LIG    1       -2.405  -4.591  -0.004  0.00  0.00    +0.050 A 
ATOM      6 CL   LIG    1       -0.909  -6.847  -0.025  0.00  0.00    -0.070 Cl
ATOM      7  C   LIG    1       -2.583  -3.222   0.009  0.00  0.00    -0.050 A 
ATOM      8  C   LIG    1       -3.974  -2.642   0.021  0.00  0.00    +0.120 C 
ENDROOT
BRANCH   1   9
ATOM      9  S   LIG    1       -1.700  -0.632   0.015  0.00  0.00    -0.100 S 
BRANCH   9  11
ATOM     10  C   LIG    1       -0.019   1.526   0.010  0.00  0.00    +0.080 C 
ATOM     11  C   LIG    1        0.002  -0.004   0.002  0.00  0.00    +0.060 C 
ENDBRANCH   9  11
ENDBRANCH   1   9
TORSDOF 2
ENDMDL
MODEL      461
REMARK  Name = ZINC000095729706
REMARK                            x       y       z     vdW  Elec       q    Type
REMARK                         _______ _______ _______ _____ _____    ______ ____
ROOT
ATOM      1  C   LIG    1        0.777  -2.342  -1.327  0.00  0.00    -0.090 A 
ATOM      2  C   LIG    1        0.154  -2.913  -0.224  0.00  0.00    -0.010 A 
ATOM      3  C   LIG    1        0.098  -4.287  -0.100  0.00  0.00    +0.020 A 
ATOM      4  C   LIG    1        0.661  -5.095  -1.071  0.00  0.00    -0.080 A 
ATOM      5  C   LIG    1        1.282  -4.530  -2.170  0.00  0.00    +0.030 A 
ATOM      6  C   LIG    1        1.337  -3.157  -2.304  0.00  0.00    +0.030 A 
ENDROOT
BRANCH   4   7
ATOM      7  C   LIG    1        0.598  -6.594  -0.931  0.00  0.00    +0.020 C 
ATOM      8  C   LIG    1        2.018  -7.162  -0.887  0.00  0.00    +0.030 C 
ATOM      9  C   LIG    1       -0.151  -7.186  -2.126  0.00  0.00    +0.030 C 
ENDBRANCH   4   7
BRANCH   1  10
ATOM     10  S   LIG    1        0.851  -0.589  -1.490  0.00  0.00    -0.120 S 
BRANCH  10  12
ATOM     11  C   LIG    1       -0.019   1.526   0.010  0.00  0.00    +0.080 C 
ATOM     12  C   LIG    1        0.002  -0.004   0.002  0.00  0.00    +0.070 C 
ENDBRANCH  10  12
ENDBRANCH   1  10
TORSDOF 3
ENDMDL
MODEL      462
REMARK  Name = ZINC000095740293
REMARK                            x       y       z     vdW  Elec       q    Type
REMARK                         _______ _______ _______ _____ _____    ______ ____
ROOT
ATOM      1  C   LIG    1       -2.817  -3.109   0.012  0.00  0.00    -0.070 A 
ATOM      2  C   LIG    1       -3.425  -3.421   1.213  0.00  0.00    +0.040 A 
ATOM      3  C   LIG    1       -4.660  -4.043   1.222  0.00  0.00    +0.020 A 
ATOM      4  C   LIG    1       -5.287  -4.353   0.029  0.00  0.00    +0.030 A 
ATOM      5  C   LIG    1       -4.679  -4.041  -1.173  0.00  0.00    +0.030 A 
ATOM      6  C   LIG    1       -3.446  -3.414  -1.182  0.00  0.00    -0.020 A 
ATOM      7 CL   LIG    1       -2.683  -3.022  -2.691  0.00  0.00    -0.060 Cl
ENDROOT
BRANCH   1   8
ATOM      8  C   LIG    1       -1.471  -2.431   0.003  0.00  0.00    +0.140 C 
BRANCH   8   9
ATOM      9  S   LIG    1       -1.700  -0.632   0.015  0.00  0.00    -0.240 S 
BRANCH   9  11
ATOM     10  C   LIG    1       -0.019   1.526   0.010  0.00  0.00    +0.060 C 
ATOM     11  C   LIG    1        0.002  -0.004   0.002  0.00  0.00    +0.070 C 
ENDBRANCH   9  11
ENDBRANCH   8   9
ENDBRANCH   1   8
TORSDOF 3
ENDMDL
MODEL      463
REMARK  Name = ZINC000095740291
REMARK                            x       y       z     vdW  Elec       q    Type
REMARK                         _______ _______ _______ _____ _____    ______ ____
ROOT
ATOM      1  C   LIG    1        1.498  -3.064   2.449  0.00  0.00    -0.060 A 
ATOM      2  C   LIG    1        2.849  -3.342   2.376  0.00  0.00    +0.030 A 
ATOM      3  C   LIG    1        3.490  -3.944   3.444  0.00  0.00    +0.030 A 
ATOM      4  C   LIG    1        2.779  -4.268   4.583  0.00  0.00    +0.030 A 
ATOM      5  C   LIG    1        1.426  -3.989   4.657  0.00  0.00    -0.030 A 
ATOM      6 CL   LIG    1        0.532  -4.395   6.089  0.00  0.00    -0.070 Cl
ATOM      7  C   LIG    1        0.786  -3.382   3.591  0.00  0.00    +0.050 A 
ENDROOT
BRANCH   1   8
ATOM      8  C   LIG    1        0.800  -2.408   1.286  0.00  0.00    +0.130 C 
BRANCH   8   9
ATOM      9  S   LIG    1        0.879  -0.605   1.472  0.00  0.00    -0.250 S 
BRANCH   9  11
ATOM     10  C   LIG    1       -0.019   1.526   0.010  0.00  0.00    +0.070 C 
ATOM     11  C   LIG    1        0.002  -0.004   0.002  0.00  0.00    +0.070 C 
ENDBRANCH   9  11
ENDBRANCH   8   9
ENDBRANCH   1   8
TORSDOF 3
ENDMDL
MODEL      464
REMARK  Name = ZINC000095740284
REMARK                            x       y       z     vdW  Elec       q    Type
REMARK                         _______ _______ _______ _____ _____    ______ ____
ROOT
ATOM      1  C   LIG    1        1.450  -3.037  -2.506  0.00  0.00    -0.080 A 
ATOM      2  C   LIG    1        0.717  -3.338  -3.639  0.00  0.00    +0.050 A 
ATOM      3  C   LIG    1        1.332  -3.927  -4.726  0.00  0.00    +0.030 A 
ATOM      4  C   LIG    1        2.690  -4.218  -4.679  0.00  0.00    -0.080 A 
ATOM      5  C   LIG    1        3.424  -3.915  -3.539  0.00  0.00    +0.000 A 
ATOM      6  C   LIG    1        2.803  -3.321  -2.458  0.00  0.00    +0.050 A 
ENDROOT
BRANCH   4   7
ATOM      7  S   LIG    1        3.480  -4.970  -6.064  0.00  0.00    -0.110 S 
ATOM      8  C   LIG    1        5.200  -5.136  -5.512  0.00  0.00    +0.140 C 
ENDBRANCH   4   7
BRANCH   1   9
ATOM      9  C   LIG    1        0.775  -2.394  -1.322  0.00  0.00    +0.140 C 
BRANCH   9  10
ATOM     10  S   LIG    1        0.851  -0.589  -1.490  0.00  0.00    -0.250 S 
BRANCH  10  12
ATOM     11  C   LIG    1       -0.019   1.526   0.010  0.00  0.00    +0.060 C 
ATOM     12  C   LIG    1        0.002  -0.004   0.002  0.00  0.00    +0.070 C 
ENDBRANCH  10  12
ENDBRANCH   9  10
ENDBRANCH   1   9
TORSDOF 4
ENDMDL
MODEL      465
REMARK  Name = ZINC000090396760
REMARK                            x       y       z     vdW  Elec       q    Type
REMARK                         _______ _______ _______ _____ _____    ______ ____
ROOT
ATOM      1  C   LIG    1       -0.018   1.503   0.010  0.00  0.00    +0.100 C 
ATOM      2  C   LIG    1        0.002  -0.004   0.002  0.00  0.00    -0.090 A 
ATOM      3  C   LIG    1        0.006  -0.691  -1.197  0.00  0.00    +0.000 A 
ATOM      4  C   LIG    1        0.021  -2.071  -1.197  0.00  0.00    +0.000 A 
ATOM      5  C   LIG    1        0.033  -2.776  -0.001  0.00  0.00    -0.080 A 
ATOM      6  C   LIG    1        0.035  -4.280  -0.073  0.00  0.00    +0.060 C 
ATOM      7  C   LIG    1        0.476  -4.882   1.260  0.00  0.00    +0.020 C 
ATOM      8  C   LIG    1       -0.363  -4.250   2.377  0.00  0.00    +0.030 C 
ATOM      9  C   LIG    1        0.057  -2.790   2.529  0.00  0.00    -0.030 C 
ATOM     10  C   LIG    1        1.473  -2.729   3.106  0.00  0.00    +0.040 C 
ATOM     11  C   LIG    1       -0.908  -2.084   3.484  0.00  0.00    +0.040 C 
ATOM     12  C   LIG    1        0.035  -2.091   1.194  0.00  0.00    -0.060 A 
ATOM     13  C   LIG    1        0.023  -0.703   1.192  0.00  0.00    +0.000 A 
ENDROOT
TORSDOF 0
ENDMDL
MODEL      466
REMARK  Name = ZINC000090373813
REMARK                            x       y       z     vdW  Elec       q    Type
REMARK                         _______ _______ _______ _____ _____    ______ ____
ROOT
ATOM      1  C   LIG    1       -0.018   1.503   0.010  0.00  0.00    +0.090 C 
ATOM      2  C   LIG    1        0.002  -0.004   0.002  0.00  0.00    -0.110 C 
ATOM      3  C   LIG    1        0.005  -0.647  -1.155  0.00  0.00    -0.010 C 
ATOM      4  C   LIG    1       -0.012  -2.124  -1.172  0.00  0.00    -0.050 A 
ATOM      5  C   LIG    1        0.334  -2.830  -2.321  0.00  0.00    -0.080 A 
ATOM      6  C   LIG    1        0.324  -4.211  -2.304  0.00  0.00    +0.000 A 
ATOM      7  C   LIG    1       -0.027  -4.889  -1.151  0.00  0.00    +0.000 A 
ATOM      8  C   LIG    1       -0.377  -4.192  -0.007  0.00  0.00    -0.090 A 
ATOM      9  C   LIG    1       -0.756  -4.940   1.245  0.00  0.00    +0.090 C 
ATOM     10  C   LIG    1        0.718  -2.091  -3.578  0.00  0.00    +0.090 C 
ATOM     11  C   LIG    1       -0.378  -2.814  -0.015  0.00  0.00    -0.080 A 
ATOM     12  C   LIG    1       -0.793  -2.039   1.208  0.00  0.00    +0.080 C 
ATOM     13  C   LIG    1        0.025  -0.749   1.308  0.00  0.00    +0.080 C 
ENDROOT
TORSDOF 0
ENDMDL
MODEL      467
REMARK  Name = ZINC000090377585
REMARK                            x       y       z     vdW  Elec       q    Type
REMARK                         _______ _______ _______ _____ _____    ______ ____
ROOT
ATOM      1  C   LIG    1       -0.019   1.526   0.010  0.00  0.00    +0.030 C 
ATOM      2  C   LIG    1        0.002  -0.004   0.002  0.00  0.00    +0.030 C 
ATOM      3  C   LIG    1        0.706  -0.491  -1.263  0.00  0.00    +0.020 C 
ATOM      4  C   LIG    1        0.910  -2.007  -1.150  0.00  0.00    +0.030 C 
ATOM      5  C   LIG    1        1.961  -2.273  -0.075  0.00  0.00    -0.030 C 
ATOM      6  C   LIG    1        1.612  -1.546   1.198  0.00  0.00    -0.060 A 
ATOM      7  C   LIG    1        2.227  -1.963   2.370  0.00  0.00    +0.000 A 
ATOM      8  C   LIG    1        1.955  -1.333   3.567  0.00  0.00    +0.000 A 
ATOM      9  C   LIG    1        1.063  -0.278   3.600  0.00  0.00    +0.000 A 
ATOM     10  C   LIG    1        0.449   0.137   2.436  0.00  0.00    +0.000 A 
ATOM     11  C   LIG    1        3.325  -1.793  -0.572  0.00  0.00    +0.040 C 
ATOM     12  C   LIG    1        2.026  -3.776   0.205  0.00  0.00    +0.040 C 
ATOM     13  C   LIG    1        0.720  -0.498   1.231  0.00  0.00    -0.070 A 
ENDROOT
TORSDOF 0
ENDMDL
MODEL      468
REMARK  Name = ZINC000095891341
REMARK                            x       y       z     vdW  Elec       q    Type
REMARK                         _______ _______ _______ _____ _____    ______ ____
ROOT
ATOM      1  C   LIG    1       -0.019   1.526   0.010  0.00  0.00    +0.030 C 
ATOM      2  C   LIG    1        0.002  -0.004   0.002  0.00  0.00    +0.030 C 
ATOM      3  C   LIG    1       -1.433  -0.527  -0.001  0.00  0.00    +0.020 C 
ATOM      4  C   LIG    1       -1.395  -2.045   0.210  0.00  0.00    +0.020 C 
ATOM      5  C   LIG    1       -0.955  -2.322   1.646  0.00  0.00    +0.030 C 
ATOM      6  C   LIG    1        0.309  -1.567   1.967  0.00  0.00    -0.070 A 
ATOM      7  C   LIG    1        1.049  -1.983   3.066  0.00  0.00    +0.000 A 
ATOM      8  C   LIG    1        2.213  -1.329   3.415  0.00  0.00    +0.000 A 
ATOM      9  C   LIG    1        2.646  -0.252   2.666  0.00  0.00    +0.000 A 
ATOM     10  C   LIG    1        1.913   0.162   1.572  0.00  0.00    +0.000 A 
ATOM     11  C   LIG    1       -0.703  -3.822   1.816  0.00  0.00    +0.030 C 
ATOM     12  C   LIG    1        0.743  -0.497   1.217  0.00  0.00    -0.070 A 
ENDROOT
TORSDOF 0
ENDMDL
MODEL      469
REMARK  Name = ZINC000090425809
REMARK                            x       y       z     vdW  Elec       q    Type
REMARK                         _______ _______ _______ _____ _____    ______ ____
ROOT
ATOM      1  C   LIG    1        1.503  -2.548   2.473  0.00  0.00    -0.020 C 
ATOM      2  C   LIG    1        2.971  -2.123   2.400  0.00  0.00    +0.020 C 
ENDROOT
BRANCH   1   3
ATOM      3  C   LIG    1        1.416  -4.074   2.530  0.00  0.00    -0.020 C 
ATOM      4  C   LIG    1       -0.052  -4.499   2.603  0.00  0.00    +0.020 C 
BRANCH   3   5
ATOM      5  C   LIG    1        2.156  -4.581   3.769  0.00  0.00    +0.000 C 
ATOM      6  C   LIG    1        2.177  -6.111   3.761  0.00  0.00    +0.000 C 
ENDBRANCH   3   5
ENDBRANCH   1   3
BRANCH   1   7
ATOM      7  C   LIG    1        0.763  -2.041   1.233  0.00  0.00    +0.010 C 
BRANCH   7   8
ATOM      8  C   LIG    1        0.742  -0.511   1.242  0.00  0.00    +0.000 C 
BRANCH   8  10
ATOM      9  C   LIG    1       -0.019   1.526   0.010  0.00  0.00    +0.000 C 
ATOM     10  C   LIG    1        0.002  -0.004   0.002  0.00  0.00    -0.010 C 
ENDBRANCH   8  10
ENDBRANCH   7   8
ENDBRANCH   1   7
TORSDOF 5
ENDMDL
MODEL      470
REMARK  Name = ZINC000090415620
REMARK                            x       y       z     vdW  Elec       q    Type
REMARK                         _______ _______ _______ _____ _____    ______ ____
ROOT
ATOM      1  C   LIG    1        0.707  -0.490  -1.238  0.00  0.00    -0.080 A 
ATOM      2  C   LIG    1       -0.008  -0.719  -2.398  0.00  0.00    +0.000 A 
ATOM      3  C   LIG    1        0.644  -1.167  -3.528  0.00  0.00    +0.010 A 
ATOM      4  C   LIG    1        2.015  -1.388  -3.511  0.00  0.00    -0.070 A 
ATOM      5  C   LIG    1        2.729  -1.155  -2.356  0.00  0.00    -0.070 A 
ATOM      6  C   LIG    1        4.219  -1.358  -2.270  0.00  0.00    +0.060 C 
ATOM      7  C   LIG    1        4.709  -2.236  -3.419  0.00  0.00    +0.020 C 
ATOM      8  C   LIG    1        4.172  -1.659  -4.733  0.00  0.00    +0.030 C 
ATOM      9  C   LIG    1        2.662  -1.885  -4.777  0.00  0.00    -0.020 C 
ATOM     10  C   LIG    1        2.074  -1.132  -5.973  0.00  0.00    +0.040 C 
ATOM     11  C   LIG    1        2.380  -3.380  -4.935  0.00  0.00    +0.040 C 
ATOM     12  C   LIG    1        2.071  -0.703  -1.220  0.00  0.00    +0.000 A 
ENDROOT
BRANCH   1  14
ATOM     13  C   LIG    1       -0.019   1.526   0.010  0.00  0.00    +0.030 C 
ATOM     14  C   LIG    1        0.002  -0.004   0.002  0.00  0.00    +0.050 C 
ENDBRANCH   1  14
TORSDOF 1
ENDMDL
MODEL      471
REMARK  Name = ZINC000090425803
REMARK                            x       y       z     vdW  Elec       q    Type
REMARK                         _______ _______ _______ _____ _____    ______ ____
ROOT
ATOM      1  C   LIG    1        1.503  -2.548   2.473  0.00  0.00    -0.020 C 
ATOM      2  C   LIG    1        0.719  -2.160   3.728  0.00  0.00    +0.020 C 
ENDROOT
BRANCH   1   3
ATOM      3  C   LIG    1        1.633  -4.070   2.402  0.00  0.00    -0.020 C 
ATOM      4  C   LIG    1        2.416  -4.458   1.146  0.00  0.00    +0.020 C 
BRANCH   3   5
ATOM      5  C   LIG    1        2.373  -4.577   3.642  0.00  0.00    +0.000 C 
ATOM      6  C   LIG    1        2.393  -6.107   3.633  0.00  0.00    +0.000 C 
ENDBRANCH   3   5
ENDBRANCH   1   3
BRANCH   1   7
ATOM      7  C   LIG    1        0.763  -2.041   1.233  0.00  0.00    +0.010 C 
BRANCH   7   8
ATOM      8  C   LIG    1        0.742  -0.511   1.242  0.00  0.00    +0.000 C 
BRANCH   8  10
ATOM      9  C   LIG    1       -0.019   1.526   0.010  0.00  0.00    +0.000 C 
ATOM     10  C   LIG    1        0.002  -0.004   0.002  0.00  0.00    -0.010 C 
ENDBRANCH   8  10
ENDBRANCH   7   8
ENDBRANCH   1   7
TORSDOF 5
ENDMDL
MODEL      472
REMARK  Name = ZINC000090425805
REMARK                            x       y       z     vdW  Elec       q    Type
REMARK                         _______ _______ _______ _____ _____    ______ ____
ROOT
ATOM      1  C   LIG    1        1.503  -2.548   2.473  0.00  0.00    -0.020 C 
ATOM      2  C   LIG    1        2.971  -2.123   2.400  0.00  0.00    +0.020 C 
ENDROOT
BRANCH   1   3
ATOM      3  C   LIG    1        1.416  -4.074   2.530  0.00  0.00    -0.020 C 
ATOM      4  C   LIG    1        2.156  -4.581   3.769  0.00  0.00    +0.020 C 
BRANCH   3   5
ATOM      5  C   LIG    1       -0.052  -4.499   2.603  0.00  0.00    +0.010 C 
ATOM      6  C   LIG    1       -0.145  -6.025   2.534  0.00  0.00    +0.000 C 
ENDBRANCH   3   5
ENDBRANCH   1   3
BRANCH   1   7
ATOM      7  C   LIG    1        0.763  -2.041   1.233  0.00  0.00    +0.010 C 
BRANCH   7   8
ATOM      8  C   LIG    1        0.742  -0.511   1.242  0.00  0.00    +0.000 C 
BRANCH   8  10
ATOM      9  C   LIG    1       -0.019   1.526   0.010  0.00  0.00    +0.000 C 
ATOM     10  C   LIG    1        0.002  -0.004   0.002  0.00  0.00    -0.010 C 
ENDBRANCH   8  10
ENDBRANCH   7   8
ENDBRANCH   1   7
TORSDOF 5
ENDMDL
MODEL      473
REMARK  Name = ZINC000090415630
REMARK                            x       y       z     vdW  Elec       q    Type
REMARK                         _______ _______ _______ _____ _____    ______ ____
ROOT
ATOM      1  C   LIG    1       -1.433  -0.534   0.013  0.00  0.00    -0.010 C 
ATOM      2  C   LIG    1       -2.115  -0.209   1.366  0.00  0.00    +0.010 C 
ATOM      3  C   LIG    1       -2.410  -1.574   2.046  0.00  0.00    +0.000 C 
ATOM      4  C   LIG    1       -1.382  -2.509   1.399  0.00  0.00    -0.030 C 
ATOM      5  C   LIG    1       -1.716  -3.989   1.442  0.00  0.00    +0.010 C 
ATOM      6  C   LIG    1       -0.605  -4.730   0.681  0.00  0.00    +0.000 C 
ATOM      7  C   LIG    1       -0.481  -4.229  -0.755  0.00  0.00    +0.000 C 
ATOM      8  C   LIG    1       -0.276  -2.706  -0.804  0.00  0.00    +0.010 C 
ATOM      9  C   LIG    1       -1.436  -2.055  -0.088  0.00  0.00    -0.020 C 
ENDROOT
BRANCH   1  11
ATOM     10  C   LIG    1       -0.019   1.526   0.010  0.00  0.00    -0.010 C 
ATOM     11  C   LIG    1        0.002  -0.004   0.002  0.00  0.00    +0.000 C 
ENDBRANCH   1  11
TORSDOF 1
ENDMDL
MODEL      474
REMARK  Name = ZINC000090425807
REMARK                            x       y       z     vdW  Elec       q    Type
REMARK                         _______ _______ _______ _____ _____    ______ ____
ROOT
ATOM      1  C   LIG    1        1.503  -2.548   2.473  0.00  0.00    -0.020 C 
ATOM      2  C   LIG    1        0.719  -2.160   3.728  0.00  0.00    +0.020 C 
ENDROOT
BRANCH   1   3
ATOM      3  C   LIG    1        1.633  -4.070   2.402  0.00  0.00    -0.020 C 
ATOM      4  C   LIG    1        2.373  -4.577   3.642  0.00  0.00    +0.020 C 
BRANCH   3   5
ATOM      5  C   LIG    1        2.416  -4.458   1.146  0.00  0.00    +0.010 C 
ATOM      6  C   LIG    1        2.439  -5.981   1.009  0.00  0.00    +0.000 C 
ENDBRANCH   3   5
ENDBRANCH   1   3
BRANCH   1   7
ATOM      7  C   LIG    1        0.763  -2.041   1.233  0.00  0.00    +0.010 C 
BRANCH   7   8
ATOM      8  C   LIG    1        0.742  -0.511   1.242  0.00  0.00    +0.000 C 
BRANCH   8  10
ATOM      9  C   LIG    1       -0.019   1.526   0.010  0.00  0.00    +0.000 C 
ATOM     10  C   LIG    1        0.002  -0.004   0.002  0.00  0.00    -0.010 C 
ENDBRANCH   8  10
ENDBRANCH   7   8
ENDBRANCH   1   7
TORSDOF 5
ENDMDL
MODEL      475
REMARK  Name = ZINC000090415633
REMARK                            x       y       z     vdW  Elec       q    Type
REMARK                         _______ _______ _______ _____ _____    ______ ____
ROOT
ATOM      1  C   LIG    1       -1.433  -0.534   0.013  0.00  0.00    -0.020 C 
ATOM      2  C   LIG    1       -2.134  -0.173  -1.307  0.00  0.00    +0.000 C 
ATOM      3  C   LIG    1       -2.888  -1.446  -1.748  0.00  0.00    +0.000 C 
ATOM      4  C   LIG    1       -2.056  -2.591  -1.163  0.00  0.00    -0.030 C 
ATOM      5  C   LIG    1       -2.763  -3.901  -1.118  0.00  0.00    +0.010 C 
ATOM      6  C   LIG    1       -3.437  -4.242   0.197  0.00  0.00    +0.000 C 
ATOM      7  C   LIG    1       -2.509  -3.926   1.369  0.00  0.00    +0.000 C 
ATOM      8  C   LIG    1       -2.210  -2.427   1.355  0.00  0.00    +0.010 C 
ATOM      9  C   LIG    1       -1.425  -2.076   0.122  0.00  0.00    -0.010 C 
ENDROOT
BRANCH   1  11
ATOM     10  C   LIG    1       -0.019   1.526   0.010  0.00  0.00    +0.000 C 
ATOM     11  C   LIG    1        0.002  -0.004   0.002  0.00  0.00    +0.000 C 
ENDBRANCH   1  11
TORSDOF 1
ENDMDL
MODEL      476
REMARK  Name = ZINC000091301297
REMARK                            x       y       z     vdW  Elec       q    Type
REMARK                         _______ _______ _______ _____ _____    ______ ____
ROOT
ATOM      1  C   LIG    1        1.523  -4.054   2.464  0.00  0.00    -0.050 A 
ATOM      2  C   LIG    1        0.499  -4.763   3.064  0.00  0.00    +0.000 A 
ATOM      3  C   LIG    1        0.516  -6.145   3.057  0.00  0.00    +0.040 A 
ATOM      4  C   LIG    1        1.558  -6.820   2.451  0.00  0.00    -0.030 A 
ATOM      5  C   LIG    1        2.585  -6.112   1.849  0.00  0.00    +0.100 A 
ATOM      6  F   LIG    1        3.604  -6.771   1.256  0.00  0.00    -0.140 F 
ATOM      7  C   LIG    1        2.563  -4.728   1.852  0.00  0.00    -0.020 A 
ENDROOT
BRANCH   1   8
ATOM      8  C   LIG    1        1.503  -2.548   2.473  0.00  0.00    +0.080 C 
BRANCH   8   9
ATOM      9  C   LIG    1        0.763  -2.041   1.233  0.00  0.00    +0.000 C 
BRANCH   9  10
ATOM     10  C   LIG    1        0.742  -0.511   1.242  0.00  0.00    +0.000 C 
BRANCH  10  12
ATOM     11  C   LIG    1       -0.019   1.526   0.010  0.00  0.00    +0.000 C 
ATOM     12  C   LIG    1        0.002  -0.004   0.002  0.00  0.00    -0.010 C 
ENDBRANCH  10  12
ENDBRANCH   9  10
ENDBRANCH   8   9
ENDBRANCH   1   8
TORSDOF 4
ENDMDL
MODEL      477
REMARK  Name = ZINC000091365448
REMARK                            x       y       z     vdW  Elec       q    Type
REMARK                         _______ _______ _______ _____ _____    ______ ____
ROOT
ATOM      1  C   LIG    1       -2.848  -2.593   0.015  0.00  0.00    +0.030 C 
ENDROOT
BRANCH   1   2
ATOM      2  C   LIG    1       -2.827  -4.123   0.007  0.00  0.00    +0.030 C 
ATOM      3 CL   LIG    1       -2.086  -4.722   1.537  0.00  0.00    -0.180 Cl
ATOM      4  C   LIG    1       -2.004  -4.615  -1.185  0.00  0.00    +0.050 C 
BRANCH   2   5
ATOM      5  C   LIG    1       -4.258  -4.652  -0.108  0.00  0.00    +0.030 C 
ATOM      6  C   LIG    1       -4.237  -6.182  -0.116  0.00  0.00    +0.020 C 
ENDBRANCH   2   5
ENDBRANCH   1   2
BRANCH   1   7
ATOM      7  C   LIG    1       -1.413  -2.063   0.004  0.00  0.00    +0.010 C 
BRANCH   7   8
ATOM      8  C   LIG    1       -1.433  -0.534   0.013  0.00  0.00    +0.000 C 
BRANCH   8  10
ATOM      9  C   LIG    1       -0.019   1.526   0.010  0.00  0.00    +0.000 C 
ATOM     10  C   LIG    1        0.002  -0.004   0.002  0.00  0.00    -0.010 C 
ENDBRANCH   8  10
ENDBRANCH   7   8
ENDBRANCH   1   7
TORSDOF 5
ENDMDL
MODEL      478
REMARK  Name = ZINC000091365447
REMARK                            x       y       z     vdW  Elec       q    Type
REMARK                         _______ _______ _______ _____ _____    ______ ____
ROOT
ATOM      1  C   LIG    1       -2.848  -2.593   0.015  0.00  0.00    +0.030 C 
ENDROOT
BRANCH   1   2
ATOM      2  C   LIG    1       -2.827  -4.123   0.007  0.00  0.00    +0.030 C 
ATOM      3 CL   LIG    1       -1.983  -4.704  -1.476  0.00  0.00    -0.180 Cl
ATOM      4  C   LIG    1       -2.087  -4.630   1.246  0.00  0.00    +0.050 C 
BRANCH   2   5
ATOM      5  C   LIG    1       -4.263  -4.652   0.018  0.00  0.00    +0.030 C 
ATOM      6  C   LIG    1       -4.242  -6.178   0.135  0.00  0.00    +0.020 C 
ENDBRANCH   2   5
ENDBRANCH   1   2
BRANCH   1   7
ATOM      7  C   LIG    1       -1.413  -2.063   0.004  0.00  0.00    +0.010 C 
BRANCH   7   8
ATOM      8  C   LIG    1       -1.433  -0.534   0.013  0.00  0.00    +0.000 C 
BRANCH   8  10
ATOM      9  C   LIG    1       -0.019   1.526   0.010  0.00  0.00    +0.000 C 
ATOM     10  C   LIG    1        0.002  -0.004   0.002  0.00  0.00    -0.010 C 
ENDBRANCH   8  10
ENDBRANCH   7   8
ENDBRANCH   1   7
TORSDOF 5
ENDMDL
MODEL      479
REMARK  Name = ZINC000091356164
REMARK                            x       y       z     vdW  Elec       q    Type
REMARK                         _______ _______ _______ _____ _____    ______ ____
ROOT
ATOM      1  C   LIG    1       -0.018   1.503   0.010  0.00  0.00    +0.090 C 
ATOM      2  C   LIG    1        0.002  -0.004   0.002  0.00  0.00    -0.090 A 
ATOM      3  C   LIG    1        0.006  -0.691  -1.197  0.00  0.00    +0.000 A 
ATOM      4  C   LIG    1        0.021  -2.071  -1.197  0.00  0.00    +0.010 A 
ATOM      5  C   LIG    1        0.035  -2.776  -0.000  0.00  0.00    -0.070 A 
ATOM      6  C   LIG    1        0.037  -2.091   1.194  0.00  0.00    -0.070 A 
ATOM      7  C   LIG    1        0.067  -2.790   2.529  0.00  0.00    +0.070 C 
ATOM      8  C   LIG    1       -0.344  -4.253   2.378  0.00  0.00    +0.020 C 
ATOM      9  C   LIG    1        0.494  -4.879   1.258  0.00  0.00    +0.030 C 
ATOM     10  C   LIG    1        0.044  -4.280  -0.073  0.00  0.00    -0.020 C 
ATOM     11  C   LIG    1        1.004  -4.726  -1.178  0.00  0.00    +0.040 C 
ATOM     12  C   LIG    1       -1.366  -4.778  -0.399  0.00  0.00    +0.040 C 
ATOM     13  C   LIG    1        0.023  -0.703   1.192  0.00  0.00    +0.000 A 
ENDROOT
TORSDOF 0
ENDMDL
MODEL      480
REMARK  Name = ZINC000091361850
REMARK                            x       y       z     vdW  Elec       q    Type
REMARK                         _______ _______ _______ _____ _____    ______ ____
ROOT
ATOM      1  C   LIG    1       -0.019   1.526   0.010  0.00  0.00    +0.040 C 
ATOM      2  C   LIG    1        0.002  -0.004   0.002  0.00  0.00    +0.020 C 
ATOM      3  C   LIG    1       -1.411  -0.523   0.002  0.00  0.00    -0.020 C 
ATOM      4  C   LIG    1       -1.678  -1.733   0.482  0.00  0.00    -0.010 C 
ATOM      5  C   LIG    1       -0.588  -2.564   1.017  0.00  0.00    -0.020 C 
ATOM      6  C   LIG    1        0.558  -1.997   1.377  0.00  0.00    -0.040 C 
ATOM      7  C   LIG    1        0.742  -0.508   1.241  0.00  0.00    +0.070 C 
ENDROOT
BRANCH   2   8
ATOM      8  C   LIG    1        0.712  -0.488  -1.236  0.00  0.00    -0.120 C 
ATOM      9  C   LIG    1        1.785  -1.231  -1.229  0.00  0.00    -0.050 C 
ATOM     10  C   LIG    1        2.242  -1.540  -2.636  0.00  0.00    +0.040 C 
ATOM     11  C   LIG    1        1.023  -1.206  -3.527  0.00  0.00    +0.010 C 
ATOM     12  C   LIG    1        0.270  -0.183  -2.649  0.00  0.00    +0.050 C 
ENDBRANCH   2   8
TORSDOF 1
ENDMDL
MODEL      481
REMARK  Name = ZINC000091361849
REMARK                            x       y       z     vdW  Elec       q    Type
REMARK                         _______ _______ _______ _____ _____    ______ ____
ROOT
ATOM      1  C   LIG    1       -0.019   1.526   0.010  0.00  0.00    +0.040 C 
ATOM      2  C   LIG    1        0.002  -0.004   0.002  0.00  0.00    +0.020 C 
ATOM      3  C   LIG    1        0.698  -0.488  -1.243  0.00  0.00    -0.020 C 
ATOM      4  C   LIG    1        1.277  -1.683  -1.262  0.00  0.00    -0.010 C 
ATOM      5  C   LIG    1        1.239  -2.534  -0.061  0.00  0.00    -0.020 C 
ATOM      6  C   LIG    1        0.986  -1.990   1.124  0.00  0.00    -0.040 C 
ATOM      7  C   LIG    1        0.742  -0.508   1.241  0.00  0.00    +0.070 C 
ENDROOT
BRANCH   2   8
ATOM      8  C   LIG    1       -1.412  -0.524   0.017  0.00  0.00    -0.120 C 
ATOM      9  C   LIG    1       -1.910  -1.284   0.955  0.00  0.00    -0.050 C 
ATOM     10  C   LIG    1       -3.353  -1.627   0.668  0.00  0.00    +0.040 C 
ATOM     11  C   LIG    1       -3.796  -0.603  -0.402  0.00  0.00    +0.010 C 
ATOM     12  C   LIG    1       -2.443  -0.228  -1.047  0.00  0.00    +0.050 C 
ENDBRANCH   2   8
TORSDOF 1
ENDMDL
MODEL      482
REMARK  Name = ZINC000095093895
REMARK                            x       y       z     vdW  Elec       q    Type
REMARK                         _______ _______ _______ _____ _____    ______ ____
ROOT
ATOM      1  C   LIG    1        0.707  -0.490  -1.238  0.00  0.00    +0.080 A 
ATOM      2  C   LIG    1        0.628   0.145  -2.411  0.00  0.00    -0.080 A 
ATOM      3  S   LIG    1        1.593  -0.752  -3.580  0.00  0.00    +0.120 S 
ATOM      4  C   LIG    1        2.007  -1.893  -2.376  0.00  0.00    +0.060 A 
ATOM      5  N   LIG    1        1.458  -1.573  -1.253  0.00  0.00    -0.470 NA
ENDROOT
BRANCH   4   6
ATOM      6  C   LIG    1        2.891  -3.094  -2.593  0.00  0.00    +0.080 C 
ATOM      7  C   LIG    1        2.692  -3.766  -3.961  0.00  0.00    +0.030 C 
ATOM      8  C   LIG    1        4.218  -3.948  -4.006  0.00  0.00    +0.030 C 
ATOM      9  C   LIG    1        4.311  -2.737  -3.063  0.00  0.00    +0.030 C 
ENDBRANCH   4   6
BRANCH   1  11
ATOM     10  C   LIG    1       -0.019   1.526   0.010  0.00  0.00    +0.040 C 
ATOM     11  C   LIG    1        0.002  -0.004   0.002  0.00  0.00    +0.070 C 
ATOM     12  C   LIG    1       -1.433  -0.534   0.013  0.00  0.00    +0.040 C 
ENDBRANCH   1  11
TORSDOF 2
ENDMDL
MODEL      483
REMARK  Name = ZINC000095147711
REMARK                            x       y       z     vdW  Elec       q    Type
REMARK                         _______ _______ _______ _____ _____    ______ ____
ROOT
ATOM      1  C   LIG    1        3.093  -0.524  -2.813  0.00  0.00    +0.130 C 
ENDROOT
BRANCH   1   2
ATOM      2  C   LIG    1        4.554  -0.171  -2.921  0.00  0.00    -0.080 A 
ATOM      3  C   LIG    1        4.932   1.058  -3.429  0.00  0.00    +0.020 A 
ATOM      4  C   LIG    1        6.272   1.382  -3.529  0.00  0.00    +0.000 A 
ATOM      5  C   LIG    1        7.234   0.478  -3.119  0.00  0.00    +0.010 A 
ATOM      6  C   LIG    1        6.856  -0.750  -2.610  0.00  0.00    +0.000 A 
ATOM      7  C   LIG    1        5.516  -1.073  -2.507  0.00  0.00    +0.020 A 
ENDBRANCH   1   2
BRANCH   1   8
ATOM      8  S   LIG    1        2.460   0.006  -1.198  0.00  0.00    -0.240 S 
BRANCH   8   9
ATOM      9  C   LIG    1        0.718  -0.497  -1.257  0.00  0.00    +0.030 C 
ATOM     10  C   LIG    1        0.630  -2.023  -1.329  0.00  0.00    +0.050 C 
BRANCH   9  12
ATOM     11  C   LIG    1       -0.019   1.526   0.010  0.00  0.00    +0.020 C 
ATOM     12  C   LIG    1        0.002  -0.004   0.002  0.00  0.00    +0.050 C 
ENDBRANCH   9  12
ENDBRANCH   8   9
ENDBRANCH   1   8
TORSDOF 4
ENDMDL
MODEL      484
REMARK  Name = ZINC000095729861
REMARK                            x       y       z     vdW  Elec       q    Type
REMARK                         _______ _______ _______ _____ _____    ______ ____
ROOT
ATOM      1  C   LIG    1        0.707  -0.490  -1.238  0.00  0.00    -0.050 A 
ATOM      2  C   LIG    1        2.023  -0.904  -1.166  0.00  0.00    +0.050 A 
ATOM      3  C   LIG    1        2.672  -1.352  -2.310  0.00  0.00    -0.080 A 
ATOM      4  C   LIG    1        1.996  -1.382  -3.523  0.00  0.00    +0.000 A 
ATOM      5  C   LIG    1        0.680  -0.967  -3.589  0.00  0.00    +0.050 A 
ATOM      6  C   LIG    1        0.034  -0.527  -2.447  0.00  0.00    -0.040 A 
ATOM      7 CL   LIG    1       -1.620  -0.006  -2.533  0.00  0.00    -0.060 Cl
ENDROOT
BRANCH   1   9
ATOM      8  C   LIG    1       -0.019   1.526   0.010  0.00  0.00    +0.030 C 
ATOM      9  C   LIG    1        0.002  -0.004   0.002  0.00  0.00    +0.070 C 
ENDBRANCH   1   9
BRANCH   3  10
ATOM     10  S   LIG    1        4.351  -1.881  -2.221  0.00  0.00    -0.110 S 
ATOM     11  C   LIG    1        4.720  -2.355  -3.933  0.00  0.00    +0.140 C 
ENDBRANCH   3  10
TORSDOF 2
ENDMDL
MODEL      485
REMARK  Name = ZINC000095729617
REMARK                            x       y       z     vdW  Elec       q    Type
REMARK                         _______ _______ _______ _____ _____    ______ ____
ROOT
ATOM      1  C   LIG    1        0.859  -1.933  -1.480  0.00  0.00    -0.160 A 
ATOM      2  C   LIG    1        0.345  -2.857  -0.564  0.00  0.00    +0.070 A 
ATOM      3  C   LIG    1        0.490  -4.207  -0.798  0.00  0.00    -0.080 A 
ATOM      4  C   LIG    1        1.144  -4.651  -1.936  0.00  0.00    -0.010 A 
ATOM      5  C   LIG    1        1.656  -3.741  -2.848  0.00  0.00    -0.080 A 
ATOM      6  C   LIG    1        2.366  -4.233  -4.083  0.00  0.00    +0.110 C 
ATOM      7 CL   LIG    1        1.322  -6.354  -2.222  0.00  0.00    -0.050 Cl
ATOM      8  C   LIG    1       -0.063  -5.205   0.187  0.00  0.00    +0.110 C 
ATOM      9  C   LIG    1        1.513  -2.388  -2.630  0.00  0.00    +0.080 A 
ENDROOT
BRANCH   1  10
ATOM     10  C   LIG    1        0.707  -0.490  -1.238  0.00  0.00    +0.400 C 
ATOM     11  O   LIG    1        1.150   0.308  -2.036  0.00  0.00    -0.450 OA
BRANCH  10  13
ATOM     12  C   LIG    1       -0.019   1.526   0.010  0.00  0.00    +0.030 C 
ATOM     13  C   LIG    1        0.002  -0.004   0.002  0.00  0.00    +0.030 C 
ENDBRANCH  10  13
ENDBRANCH   1  10
TORSDOF 2
ENDMDL
MODEL      486
REMARK  Name = ZINC000095729422
REMARK                            x       y       z     vdW  Elec       q    Type
REMARK                         _______ _______ _______ _____ _____    ______ ____
ROOT
ATOM      1  C   LIG    1        1.375  -2.725  -2.379  0.00  0.00    -0.170 A 
ATOM      2  C   LIG    1        1.967  -2.016  -3.428  0.00  0.00    +0.050 A 
ATOM      3  C   LIG    1        2.562  -2.699  -4.468  0.00  0.00    +0.000 A 
ATOM      4  C   LIG    1        2.573  -4.083  -4.476  0.00  0.00    +0.050 A 
ATOM      5  C   LIG    1        1.989  -4.792  -3.440  0.00  0.00    -0.090 A 
ATOM      6  C   LIG    1        1.396  -4.124  -2.390  0.00  0.00    +0.070 A 
ENDROOT
BRANCH   5   7
ATOM      7  C   LIG    1        2.007  -6.299  -3.458  0.00  0.00    +0.020 C 
ATOM      8  C   LIG    1        3.455  -6.792  -3.474  0.00  0.00    +0.030 C 
ATOM      9  C   LIG    1        1.283  -6.803  -4.708  0.00  0.00    +0.030 C 
ENDBRANCH   5   7
BRANCH   1  10
ATOM     10  C   LIG    1        0.739  -2.004  -1.265  0.00  0.00    +0.390 C 
ATOM     11  O   LIG    1        0.231  -2.623  -0.354  0.00  0.00    -0.450 OA
BRANCH  10  12
ATOM     12  C   LIG    1        0.718  -0.497  -1.257  0.00  0.00    +0.030 C 
BRANCH  12  14
ATOM     13  C   LIG    1       -0.019   1.526   0.010  0.00  0.00    +0.030 C 
ATOM     14  C   LIG    1        0.002  -0.004   0.002  0.00  0.00    +0.020 C 
ENDBRANCH  12  14
ENDBRANCH  10  12
ENDBRANCH   1  10
TORSDOF 4
ENDMDL
MODEL      487
REMARK  Name = ZINC000095740048
REMARK                            x       y       z     vdW  Elec       q    Type
REMARK                         _______ _______ _______ _____ _____    ______ ____
ROOT
ATOM      1  C   LIG    1        1.514  -3.833  -2.603  0.00  0.00    +0.150 A 
ATOM      2  C   LIG    1        0.979  -4.691  -1.653  0.00  0.00    -0.080 A 
ATOM      3  C   LIG    1        1.086  -6.060  -1.816  0.00  0.00    +0.070 A 
ATOM      4  C   LIG    1        1.724  -6.578  -2.925  0.00  0.00    -0.040 A 
ATOM      5  C   LIG    1        2.262  -5.723  -3.881  0.00  0.00    -0.050 A 
ATOM      6  C   LIG    1        2.150  -4.349  -3.721  0.00  0.00    +0.000 A 
ENDROOT
BRANCH   5   7
ATOM      7  S   LIG    1        3.077  -6.384  -5.297  0.00  0.00    -0.110 S 
ATOM      8  C   LIG    1        2.949  -8.175  -5.043  0.00  0.00    +0.140 C 
ENDBRANCH   5   7
BRANCH   1   9
ATOM      9  O   LIG    1        1.408  -2.488  -2.441  0.00  0.00    -0.310 OA
BRANCH   9  10
ATOM     10  C   LIG    1        0.739  -2.027  -1.265  0.00  0.00    +0.180 C 
BRANCH  10  11
ATOM     11  C   LIG    1        0.718  -0.497  -1.257  0.00  0.00    +0.020 C 
BRANCH  11  13
ATOM     12  C   LIG    1       -0.019   1.526   0.010  0.00  0.00    +0.030 C 
ATOM     13  C   LIG    1        0.002  -0.004   0.002  0.00  0.00    +0.020 C 
ENDBRANCH  11  13
ENDBRANCH  10  11
ENDBRANCH   9  10
ENDBRANCH   1   9
TORSDOF 5
ENDMDL
MODEL      488
REMARK  Name = ZINC000095864423
REMARK                            x       y       z     vdW  Elec       q    Type
REMARK                         _______ _______ _______ _____ _____    ______ ____
ROOT
ATOM      1  C   LIG    1       -2.848  -2.593   0.015  0.00  0.00    -0.020 C 
ATOM      2  C   LIG    1       -3.555  -2.269  -1.324  0.00  0.00    +0.010 C 
ATOM      3  C   LIG    1       -4.673  -3.339  -1.388  0.00  0.00    +0.010 C 
ATOM      4  C   LIG    1       -4.015  -4.609  -0.809  0.00  0.00    -0.030 C 
ATOM      5  C   LIG    1       -5.031  -5.393   0.024  0.00  0.00    +0.000 C 
ATOM      6  C   LIG    1       -2.854  -4.134   0.087  0.00  0.00    +0.000 C 
ENDROOT
BRANCH   1   7
ATOM      7  C   LIG    1       -1.413  -2.063   0.004  0.00  0.00    +0.010 C 
BRANCH   7   8
ATOM      8  C   LIG    1       -1.433  -0.534   0.013  0.00  0.00    +0.000 C 
BRANCH   8  10
ATOM      9  C   LIG    1       -0.019   1.526   0.010  0.00  0.00    +0.000 C 
ATOM     10  C   LIG    1        0.002  -0.004   0.002  0.00  0.00    -0.010 C 
ENDBRANCH   8  10
ENDBRANCH   7   8
ENDBRANCH   1   7
TORSDOF 3
ENDMDL
MODEL      489
REMARK  Name = ZINC000095863173
REMARK                            x       y       z     vdW  Elec       q    Type
REMARK                         _______ _______ _______ _____ _____    ______ ____
ROOT
ATOM      1  C   LIG    1       -0.018   1.503   0.010  0.00  0.00    +0.100 C 
ATOM      2  C   LIG    1        0.002  -0.004   0.002  0.00  0.00    -0.080 A 
ATOM      3  C   LIG    1        0.006  -0.691  -1.197  0.00  0.00    -0.010 A 
ATOM      4  C   LIG    1        0.021  -2.071  -1.197  0.00  0.00    -0.080 A 
ATOM      5  C   LIG    1        0.033  -2.776  -0.001  0.00  0.00    -0.080 A 
ATOM      6  C   LIG    1        0.035  -4.280  -0.073  0.00  0.00    +0.070 C 
ATOM      7  C   LIG    1        0.476  -4.882   1.260  0.00  0.00    +0.020 C 
ATOM      8  C   LIG    1       -0.363  -4.250   2.377  0.00  0.00    -0.060 C 
ATOM      9  C   LIG    1        0.057  -2.790   2.529  0.00  0.00    +0.080 C 
ATOM     10  C   LIG    1       -0.118  -4.997   3.690  0.00  0.00    +0.040 C 
ATOM     11  C   LIG    1       -1.847  -4.325   2.012  0.00  0.00    +0.020 C 
ATOM     12  C   LIG    1        0.035  -2.091   1.194  0.00  0.00    -0.060 A 
ATOM     13  C   LIG    1        0.026  -2.818  -2.505  0.00  0.00    +0.090 C 
ATOM     14  C   LIG    1        0.023  -0.703   1.192  0.00  0.00    -0.010 A 
ENDROOT
TORSDOF 0
ENDMDL
MODEL      490
REMARK  Name = ZINC000095862989
REMARK                            x       y       z     vdW  Elec       q    Type
REMARK                         _______ _______ _______ _____ _____    ______ ____
ROOT
ATOM      1  C   LIG    1        0.502   0.956  -0.684  0.00  0.00    +0.100 C 
ATOM      2  C   LIG    1        0.391  -0.521  -0.402  0.00  0.00    -0.090 A 
ATOM      3  C   LIG    1        0.437  -1.402  -1.466  0.00  0.00    +0.000 A 
ATOM      4  C   LIG    1        0.342  -2.757  -1.227  0.00  0.00    +0.000 A 
ATOM      5  C   LIG    1        0.160  -3.225   0.062  0.00  0.00    -0.090 A 
ATOM      6  C   LIG    1        0.074  -2.343   1.132  0.00  0.00    -0.060 A 
ATOM      7  C   LIG    1       -0.244  -2.882   2.498  0.00  0.00    +0.030 C 
ATOM      8  C   LIG    1       -1.703  -3.371   2.519  0.00  0.00    +0.030 C 
ATOM      9  C   LIG    1       -0.110  -1.845   3.610  0.00  0.00    +0.010 C 
ATOM     10  C   LIG    1        0.951  -0.806   3.256  0.00  0.00    +0.020 C 
ATOM     11  C   LIG    1        0.454  -0.026   2.033  0.00  0.00    +0.080 C 
ATOM     12  C   LIG    1        0.092  -4.719   0.258  0.00  0.00    +0.090 C 
ATOM     13  C   LIG    1        0.271  -0.995   0.892  0.00  0.00    -0.070 A 
ENDROOT
TORSDOF 0
ENDMDL
MODEL      491
REMARK  Name = ZINC000095891339
REMARK                            x       y       z     vdW  Elec       q    Type
REMARK                         _______ _______ _______ _____ _____    ______ ____
ROOT
ATOM      1  C   LIG    1       -0.019   1.526   0.010  0.00  0.00    +0.040 C 
ATOM      2  C   LIG    1        0.002  -0.004   0.002  0.00  0.00    +0.030 C 
ATOM      3  C   LIG    1       -1.433  -0.527  -0.001  0.00  0.00    +0.020 C 
ATOM      4  C   LIG    1       -2.064  -0.215   1.361  0.00  0.00    +0.020 C 
ATOM      5  C   LIG    1       -1.401  -1.101   2.414  0.00  0.00    +0.030 C 
ATOM      6  C   LIG    1        0.099  -0.994   2.328  0.00  0.00    -0.070 A 
ATOM      7  C   LIG    1        0.842  -1.417   3.422  0.00  0.00    +0.000 A 
ATOM      8  C   LIG    1        2.220  -1.349   3.403  0.00  0.00    +0.000 A 
ATOM      9  C   LIG    1        2.867  -0.857   2.285  0.00  0.00    +0.000 A 
ATOM     10  C   LIG    1        2.131  -0.433   1.198  0.00  0.00    +0.000 A 
ATOM     11  C   LIG    1       -1.859  -0.660   3.806  0.00  0.00    +0.030 C 
ATOM     12  C   LIG    1        0.743  -0.497   1.217  0.00  0.00    -0.070 A 
ENDROOT
TORSDOF 0
ENDMDL
MODEL      492
REMARK  Name = ZINC000095891340
REMARK                            x       y       z     vdW  Elec       q    Type
REMARK                         _______ _______ _______ _____ _____    ______ ____
ROOT
ATOM      1  C   LIG    1       -0.019   1.526   0.010  0.00  0.00    +0.030 C 
ATOM      2  C   LIG    1        0.002  -0.004   0.002  0.00  0.00    +0.030 C 
ATOM      3  C   LIG    1        0.706  -0.491  -1.263  0.00  0.00    +0.020 C 
ATOM      4  C   LIG    1        0.910  -2.007  -1.150  0.00  0.00    +0.020 C 
ATOM      5  C   LIG    1        1.961  -2.273  -0.075  0.00  0.00    +0.030 C 
ATOM      6  C   LIG    1        1.612  -1.546   1.198  0.00  0.00    -0.070 A 
ATOM      7  C   LIG    1        2.227  -1.963   2.370  0.00  0.00    +0.000 A 
ATOM      8  C   LIG    1        1.954  -1.334   3.568  0.00  0.00    +0.000 A 
ATOM      9  C   LIG    1        1.063  -0.278   3.600  0.00  0.00    +0.000 A 
ATOM     10  C   LIG    1        0.449   0.137   2.436  0.00  0.00    +0.000 A 
ATOM     11  C   LIG    1        2.025  -3.776   0.206  0.00  0.00    +0.030 C 
ATOM     12  C   LIG    1        0.720  -0.498   1.231  0.00  0.00    -0.070 A 
ENDROOT
TORSDOF 0
ENDMDL
MODEL      493
REMARK  Name = ZINC000095916910
REMARK                            x       y       z     vdW  Elec       q    Type
REMARK                         _______ _______ _______ _____ _____    ______ ____
ROOT
ATOM      1  C   LIG    1        1.754  -3.962  -2.684  0.00  0.00    -0.170 A 
ATOM      2  C   LIG    1        1.332  -4.884  -1.721  0.00  0.00    +0.060 A 
ATOM      3  C   LIG    1        1.322  -6.231  -2.018  0.00  0.00    -0.010 A 
ATOM      4  C   LIG    1        1.728  -6.670  -3.266  0.00  0.00    +0.050 A 
ATOM      5  C   LIG    1        2.146  -5.764  -4.225  0.00  0.00    +0.000 A 
ATOM      6  C   LIG    1        2.156  -4.414  -3.945  0.00  0.00    -0.020 A 
ENDROOT
BRANCH   1   7
ATOM      7  C   LIG    1        1.768  -2.524  -2.374  0.00  0.00    +0.390 C 
ATOM      8  O   LIG    1        2.225  -1.736  -3.174  0.00  0.00    -0.440 OA
BRANCH   7   9
ATOM      9  C   LIG    1        1.213  -2.030  -1.062  0.00  0.00    +0.030 C 
BRANCH   9  10
ATOM     10  C   LIG    1        1.348  -0.507  -0.993  0.00  0.00    +0.030 C 
BRANCH  10  12
ATOM     11  C   LIG    1        0.920   1.517   0.408  0.00  0.00    +0.000 C 
ATOM     12  C   LIG    1        0.785  -0.006   0.339  0.00  0.00    -0.010 C 
ENDBRANCH  10  12
ENDBRANCH   9  10
ENDBRANCH   7   9
ENDBRANCH   1   7
BRANCH   6  13
ATOM     13  C   LIG    1        2.612  -3.429  -4.990  0.00  0.00    +0.070 C 
ATOM     14  C   LIG    1        4.073  -3.053  -4.734  0.00  0.00    +0.030 C 
ENDBRANCH   6  13
TORSDOF 5
ENDMDL
MODEL      494
REMARK  Name = ZINC000090415631
REMARK                            x       y       z     vdW  Elec       q    Type
REMARK                         _______ _______ _______ _____ _____    ______ ____
ROOT
ATOM      1  C   LIG    1       -1.433  -0.534   0.013  0.00  0.00    -0.020 C 
ATOM      2  C   LIG    1       -2.143  -0.225  -1.333  0.00  0.00    +0.000 C 
ATOM      3  C   LIG    1       -3.029  -1.455  -1.653  0.00  0.00    +0.000 C 
ATOM      4  C   LIG    1       -2.874  -2.385  -0.454  0.00  0.00    -0.030 C 
ATOM      5  C   LIG    1       -2.930  -3.873  -0.739  0.00  0.00    +0.010 C 
ATOM      6  C   LIG    1       -2.745  -4.601   0.603  0.00  0.00    +0.000 C 
ATOM      7  C   LIG    1       -1.435  -4.206   1.277  0.00  0.00    +0.000 C 
ATOM      8  C   LIG    1       -1.326  -2.682   1.446  0.00  0.00    +0.010 C 
ATOM      9  C   LIG    1       -1.446  -2.065   0.069  0.00  0.00    -0.020 C 
ENDROOT
BRANCH   1  11
ATOM     10  C   LIG    1       -0.019   1.526   0.010  0.00  0.00    +0.000 C 
ATOM     11  C   LIG    1        0.002  -0.004   0.002  0.00  0.00    +0.000 C 
ENDBRANCH   1  11
TORSDOF 1
ENDMDL
MODEL      495
REMARK  Name = ZINC000095934861
REMARK                            x       y       z     vdW  Elec       q    Type
REMARK                         _______ _______ _______ _____ _____    ______ ____
ROOT
ATOM      1  C   LIG    1        0.054  -2.844   2.489  0.00  0.00    +0.120 C 
ENDROOT
BRANCH   1   7
ATOM      2  C   LIG    1       -0.018   1.503   0.010  0.00  0.00    +0.090 C 
ATOM      3  C   LIG    1        0.002  -0.004   0.002  0.00  0.00    -0.080 A 
ATOM      4  C   LIG    1        0.006  -0.689  -1.199  0.00  0.00    -0.010 A 
ATOM      5  C   LIG    1        0.025  -2.071  -1.206  0.00  0.00    +0.010 A 
ATOM      6  C   LIG    1        0.040  -2.768  -0.013  0.00  0.00    +0.000 A 
ATOM      7  C   LIG    1        0.037  -2.084   1.188  0.00  0.00    -0.070 A 
ATOM      8  C   LIG    1        0.023  -0.702   1.196  0.00  0.00    +0.000 A 
ENDBRANCH   1   7
BRANCH   1   9
ATOM      9  C   LIG    1        1.480  -3.079   2.915  0.00  0.00    -0.080 A 
ATOM     10  C   LIG    1        2.112  -4.264   2.589  0.00  0.00    +0.010 A 
ATOM     11  C   LIG    1        3.421  -4.480   2.980  0.00  0.00    +0.000 A 
ATOM     12  C   LIG    1        4.096  -3.510   3.697  0.00  0.00    +0.000 A 
ATOM     13  C   LIG    1        3.464  -2.325   4.022  0.00  0.00    +0.000 A 
ATOM     14  C   LIG    1        2.158  -2.107   3.628  0.00  0.00    -0.080 A 
ATOM     15  C   LIG    1        1.468  -0.815   3.982  0.00  0.00    +0.090 C 
ENDBRANCH   1   9
TORSDOF 2
ENDMDL
MODEL      496
REMARK  Name = ZINC000095950029
REMARK                            x       y       z     vdW  Elec       q    Type
REMARK                         _______ _______ _______ _____ _____    ______ ____
ROOT
ATOM      1  C   LIG    1       -0.018   1.503   0.010  0.00  0.00    +0.110 C 
ATOM      2  C   LIG    1        0.002  -0.004   0.002  0.00  0.00    -0.060 A 
ATOM      3  C   LIG    1        0.006  -0.690  -1.204  0.00  0.00    +0.040 A 
ATOM      4  C   LIG    1        0.024  -2.062  -1.227  0.00  0.00    +0.080 A 
ATOM      5  C   LIG    1        0.040  -2.794  -0.023  0.00  0.00    +0.080 A 
ATOM      6  N   LIG    1        0.059  -4.127   0.173  0.00  0.00    -0.450 NA
ATOM      7  C   LIG    1        0.070  -4.553   1.381  0.00  0.00    +0.110 A 
ATOM      8  S   LIG    1        0.058  -3.264   2.499  0.00  0.00    +0.170 S 
ATOM      9 CL   LIG    1        0.095  -6.231   1.824  0.00  0.00    +0.030 Cl
ATOM     10  C   LIG    1        0.037  -2.091   1.187  0.00  0.00    -0.180 A 
ATOM     11  C   LIG    1        0.023  -0.698   1.191  0.00  0.00    -0.040 A 
ATOM     12  C   LIG    1        0.026   0.050   2.499  0.00  0.00    +0.110 C 
ENDROOT
TORSDOF 0
ENDMDL
MODEL      497
REMARK  Name = ZINC000096024719
REMARK                            x       y       z     vdW  Elec       q    Type
REMARK                         _______ _______ _______ _____ _____    ______ ____
ROOT
ATOM      1  C   LIG    1        0.512   1.486   0.001  0.00  0.00    +0.090 C 
ATOM      2  C   LIG    1        0.277  -0.003  -0.002  0.00  0.00    -0.070 A 
ATOM      3  C   LIG    1        0.063  -0.665  -1.197  0.00  0.00    +0.000 A 
ATOM      4  C   LIG    1       -0.152  -2.032  -1.206  0.00  0.00    +0.030 A 
ATOM      5  C   LIG    1       -0.153  -2.739  -0.020  0.00  0.00    -0.070 A 
ATOM      6  C   LIG    1        0.062  -2.077   1.183  0.00  0.00    -0.080 A 
ATOM      7  C   LIG    1       -0.387  -4.228  -0.030  0.00  0.00    +0.090 C 
ATOM      8  C   LIG    1        0.282  -0.705   1.187  0.00  0.00    +0.000 A 
ENDROOT
BRANCH   6   9
ATOM      9  S   LIG    1        0.061  -2.976   2.698  0.00  0.00    -0.110 S 
BRANCH   9  10
ATOM     10  C   LIG    1        0.198  -1.668   3.948  0.00  0.00    +0.000 C 
ATOM     11  C   LIG    1        0.456  -2.298   5.319  0.00  0.00    +0.080 C 
ATOM     12  C   LIG    1       -1.103  -0.866   3.992  0.00  0.00    +0.050 C 
ENDBRANCH   9  10
ENDBRANCH   6   9
TORSDOF 2
ENDMDL
MODEL      498
REMARK  Name = ZINC000096029508
REMARK                            x       y       z     vdW  Elec       q    Type
REMARK                         _______ _______ _______ _____ _____    ______ ____
ROOT
ATOM      1  C   LIG    1       -1.416  -2.035  -0.119  0.00  0.00    -0.160 A 
ATOM      2  C   LIG    1       -1.538  -2.738  -1.256  0.00  0.00    +0.230 A 
ATOM      3  N   LIG    1       -1.475  -4.077  -0.986  0.00  0.00    -0.590 N 
ATOM      4  H   LIG    1       -1.540  -4.783  -1.648  0.00  0.00    +0.420 HD
ATOM      5  C   LIG    1       -1.308  -4.274   0.368  0.00  0.00    +0.080 A 
ATOM      6  C   LIG    1       -1.187  -5.411   1.160  0.00  0.00    +0.030 A 
ATOM      7  C   LIG    1       -1.026  -5.285   2.523  0.00  0.00    +0.010 A 
ATOM      8  C   LIG    1       -0.982  -4.030   3.118  0.00  0.00    +0.070 A 
ATOM      9  C   LIG    1       -1.099  -2.891   2.351  0.00  0.00    +0.020 A 
ATOM     10  F   LIG    1       -0.823  -3.926   4.456  0.00  0.00    -0.140 F 
ATOM     11  C   LIG    1       -1.257  -3.003   0.968  0.00  0.00    -0.070 A 
ENDROOT
BRANCH   1  12
ATOM     12  C   LIG    1       -1.433  -0.534   0.013  0.00  0.00    +0.100 C 
BRANCH  12  14
ATOM     13  C   LIG    1       -0.019   1.526   0.010  0.00  0.00    +0.000 C 
ATOM     14  C   LIG    1        0.002  -0.004   0.002  0.00  0.00    -0.020 C 
ATOM     15  C   LIG    1        0.742  -0.511   1.242  0.00  0.00    +0.010 C 
ENDBRANCH  12  14
ENDBRANCH   1  12
TORSDOF 2
ENDMDL
MODEL      499
REMARK  Name = ZINC000096511807
REMARK                            x       y       z     vdW  Elec       q    Type
REMARK                         _______ _______ _______ _____ _____    ______ ____
ROOT
ATOM      1  C   LIG    1       -0.018   1.503   0.010  0.00  0.00    +0.090 C 
ATOM      2  C   LIG    1        0.002  -0.004   0.002  0.00  0.00    -0.050 A 
ATOM      3  C   LIG    1        0.006  -0.688  -1.199  0.00  0.00    -0.040 A 
ATOM      4  C   LIG    1        0.024  -2.071  -1.210  0.00  0.00    +0.040 A 
ATOM      5  C   LIG    1        0.040  -2.772  -0.020  0.00  0.00    -0.090 A 
ATOM      6  C   LIG    1        0.036  -2.088   1.187  0.00  0.00    +0.130 A 
ATOM      7  C   LIG    1        0.023  -0.701   1.195  0.00  0.00    -0.030 A 
ENDROOT
BRANCH   6   8
ATOM      8  O   LIG    1        0.051  -2.775   2.359  0.00  0.00    -0.320 OA
BRANCH   8   9
ATOM      9  C   LIG    1        0.071  -4.202   2.274  0.00  0.00    +0.180 C 
BRANCH   9  10
ATOM     10  C   LIG    1        0.086  -4.796   3.684  0.00  0.00    +0.050 C 
BRANCH  10  11
ATOM     11  C   LIG    1        0.107  -6.323   3.593  0.00  0.00    -0.020 C 
ATOM     12  C   LIG    1        1.522  -6.915   3.488  0.00  0.00    +0.010 C 
ATOM     13  C   LIG    1        1.043  -8.026   4.437  0.00  0.00    +0.010 C 
ATOM     14  C   LIG    1        0.000  -7.023   4.958  0.00  0.00    +0.010 C 
ENDBRANCH  10  11
ENDBRANCH   9  10
ENDBRANCH   8   9
ENDBRANCH   6   8
TORSDOF 4
ENDMDL
MODEL      500
REMARK  Name = ZINC000096511806
REMARK                            x       y       z     vdW  Elec       q    Type
REMARK                         _______ _______ _______ _____ _____    ______ ____
ROOT
ATOM      1  C   LIG    1       -0.018   1.503   0.010  0.00  0.00    +0.090 C 
ATOM      2  C   LIG    1        0.002  -0.004   0.002  0.00  0.00    -0.130 A 
ATOM      3  C   LIG    1        0.006  -0.688  -1.200  0.00  0.00    +0.050 A 
ATOM      4  C   LIG    1        0.025  -2.069  -1.210  0.00  0.00    -0.020 A 
ATOM      5  C   LIG    1        0.040  -2.770  -0.013  0.00  0.00    +0.120 A 
ATOM      6  C   LIG    1        0.037  -2.082   1.191  0.00  0.00    -0.080 A 
ATOM      7  C   LIG    1        0.023  -0.701   1.196  0.00  0.00    +0.040 A 
ENDROOT
BRANCH   5   8
ATOM      8  O   LIG    1        0.059  -4.129  -0.021  0.00  0.00    -0.320 OA
BRANCH   8   9
ATOM      9  C   LIG    1        0.074  -4.785   1.249  0.00  0.00    +0.180 C 
BRANCH   9  10
ATOM     10  C   LIG    1        0.094  -6.300   1.040  0.00  0.00    +0.050 C 
BRANCH  10  11
ATOM     11  C   LIG    1        0.111  -7.002   2.400  0.00  0.00    -0.020 C 
ATOM     12  C   LIG    1       -1.291  -7.250   2.982  0.00  0.00    +0.010 C 
ATOM     13  C   LIG    1       -0.770  -8.620   3.445  0.00  0.00    +0.010 C 
ATOM     14  C   LIG    1        0.254  -8.530   2.302  0.00  0.00    +0.010 C 
ENDBRANCH  10  11
ENDBRANCH   9  10
ENDBRANCH   8   9
ENDBRANCH   5   8
TORSDOF 4
ENDMDL
MODEL      501
REMARK  Name = ZINC000096528412
REMARK                            x       y       z     vdW  Elec       q    Type
REMARK                         _______ _______ _______ _____ _____    ______ ____
ROOT
ATOM      1  N   LIG    1        0.059  -4.167  -0.021  0.00  0.00    -0.750 N 
ATOM      2  H   LIG    1        0.062  -4.648  -0.864  0.00  0.00    +0.400 HD
ENDROOT
BRANCH   1   7
ATOM      3  C   LIG    1       -0.018   1.503   0.010  0.00  0.00    +0.070 C 
ATOM      4  C   LIG    1        0.002  -0.004   0.002  0.00  0.00    -0.150 A 
ATOM      5  C   LIG    1        0.006  -0.687  -1.200  0.00  0.00    +0.050 A 
ATOM      6  C   LIG    1        0.024  -2.068  -1.212  0.00  0.00    -0.070 A 
ATOM      7  C   LIG    1        0.040  -2.771  -0.013  0.00  0.00    +0.210 A 
ATOM      8  C   LIG    1        0.036  -2.081   1.193  0.00  0.00    -0.070 A 
ATOM      9  C   LIG    1        0.023  -0.700   1.197  0.00  0.00    +0.050 A 
ENDBRANCH   1   7
BRANCH   1  10
ATOM     10  C   LIG    1        0.075  -4.907   1.244  0.00  0.00    +0.240 C 
BRANCH  10  11
ATOM     11  C   LIG    1        0.095  -6.409   0.956  0.00  0.00    +0.010 C 
BRANCH  11  12
ATOM     12  C   LIG    1        0.111  -7.181   2.277  0.00  0.00    +0.050 C 
BRANCH  12  13
ATOM     13  C   LIG    1        0.131  -8.684   1.989  0.00  0.00    -0.060 C 
ATOM     14  C   LIG    1        1.360  -9.474   2.443  0.00  0.00    +0.000 C 
ATOM     15  C   LIG    1        0.031  -9.634   3.184  0.00  0.00    +0.000 C 
ENDBRANCH  12  13
ENDBRANCH  11  12
ENDBRANCH  10  11
ENDBRANCH   1  10
TORSDOF 5
ENDMDL
MODEL      502
REMARK  Name = ZINC000098178938
REMARK                            x       y       z     vdW  Elec       q    Type
REMARK                         _______ _______ _______ _____ _____    ______ ____
ROOT
ATOM      1  C   LIG    1       -1.208  -2.149   0.455  0.00  0.00    -0.150 A 
ATOM      2  C   LIG    1       -0.321  -3.209   0.241  0.00  0.00    -0.040 A 
ATOM      3  C   LIG    1       -0.796  -4.421  -0.211  0.00  0.00    +0.020 A 
ATOM      4  C   LIG    1       -2.150  -4.590  -0.455  0.00  0.00    -0.010 A 
ATOM      5  C   LIG    1       -3.034  -3.544  -0.246  0.00  0.00    +0.020 A 
ATOM      6 CL   LIG    1       -2.740  -6.120  -1.025  0.00  0.00    -0.060 Cl
ATOM      7  C   LIG    1        1.152  -3.028   0.507  0.00  0.00    +0.100 C 
ATOM      8  C   LIG    1       -2.574  -2.329   0.212  0.00  0.00    -0.040 A 
ATOM      9  C   LIG    1       -3.537  -1.193   0.439  0.00  0.00    +0.100 C 
ENDROOT
BRANCH   1  10
ATOM     10  C   LIG    1       -0.708  -0.853   0.939  0.00  0.00    +0.410 C 
ATOM     11  O   LIG    1       -0.278  -0.037   0.152  0.00  0.00    -0.440 OA
BRANCH  10  13
ATOM     12  C   LIG    1       -0.042   0.805   2.659  0.00  0.00    +0.040 C 
ATOM     13  C   LIG    1       -0.729  -0.540   2.413  0.00  0.00    +0.030 C 
ENDBRANCH  10  13
ENDBRANCH   1  10
TORSDOF 2
ENDMDL
MODEL      503
REMARK  Name = ZINC000098181714
REMARK                            x       y       z     vdW  Elec       q    Type
REMARK                         _______ _______ _______ _____ _____    ______ ____
ROOT
ATOM      1  C   LIG    1       -0.018   1.503   0.010  0.00  0.00    +0.110 C 
ATOM      2  C   LIG    1        0.002  -0.004   0.002  0.00  0.00    -0.070 A 
ATOM      3  C   LIG    1        0.006  -0.688  -1.199  0.00  0.00    +0.040 A 
ATOM      4  C   LIG    1        0.025  -2.071  -1.207  0.00  0.00    -0.030 A 
ATOM      5  C   LIG    1        0.040  -2.770  -0.012  0.00  0.00    -0.030 A 
ATOM      6  C   LIG    1        0.036  -2.083   1.190  0.00  0.00    +0.040 A 
ATOM      7 CL   LIG    1        0.064  -4.505  -0.020  0.00  0.00    -0.050 Cl
ATOM      8 CL   LIG    1        0.030  -2.931  -2.715  0.00  0.00    -0.050 Cl
ATOM      9  C   LIG    1        0.023  -0.701   1.196  0.00  0.00    -0.070 A 
ATOM     10  C   LIG    1        0.019   0.046   2.505  0.00  0.00    +0.110 C 
ENDROOT
TORSDOF 0
ENDMDL
MODEL      504
REMARK  Name = ZINC000098213753
REMARK                            x       y       z     vdW  Elec       q    Type
REMARK                         _______ _______ _______ _____ _____    ______ ____
ROOT
ATOM      1  C   LIG    1       -1.416  -2.035  -0.119  0.00  0.00    -0.160 A 
ATOM      2  C   LIG    1       -1.538  -2.738  -1.256  0.00  0.00    +0.230 A 
ATOM      3  N   LIG    1       -1.475  -4.077  -0.986  0.00  0.00    -0.590 N 
ATOM      4  H   LIG    1       -1.539  -4.783  -1.648  0.00  0.00    +0.420 HD
ATOM      5  C   LIG    1       -1.307  -4.274   0.368  0.00  0.00    +0.060 A 
ATOM      6  C   LIG    1       -1.186  -5.410   1.164  0.00  0.00    +0.080 A 
ATOM      7  C   LIG    1       -1.024  -5.276   2.528  0.00  0.00    +0.010 A 
ATOM      8  C   LIG    1       -0.982  -4.019   3.115  0.00  0.00    +0.010 A 
ATOM      9  C   LIG    1       -1.099  -2.892   2.352  0.00  0.00    +0.050 A 
ATOM     10  F   LIG    1       -1.225  -6.638   0.603  0.00  0.00    -0.140 F 
ATOM     11  C   LIG    1       -1.257  -3.003   0.968  0.00  0.00    -0.070 A 
ENDROOT
BRANCH   1  12
ATOM     12  C   LIG    1       -1.433  -0.534   0.013  0.00  0.00    +0.100 C 
BRANCH  12  14
ATOM     13  C   LIG    1       -0.019   1.526   0.010  0.00  0.00    +0.000 C 
ATOM     14  C   LIG    1        0.002  -0.004   0.002  0.00  0.00    -0.020 C 
ATOM     15  C   LIG    1        0.742  -0.511   1.242  0.00  0.00    +0.010 C 
ENDBRANCH  12  14
ENDBRANCH   1  12
TORSDOF 2
ENDMDL
MODEL      505
REMARK  Name = ZINC000098213774
REMARK                            x       y       z     vdW  Elec       q    Type
REMARK                         _______ _______ _______ _____ _____    ______ ____
ROOT
ATOM      1  C   LIG    1       -1.416  -2.035  -0.119  0.00  0.00    -0.150 A 
ATOM      2  C   LIG    1       -1.538  -2.738  -1.256  0.00  0.00    +0.220 A 
ATOM      3  N   LIG    1       -1.475  -4.078  -0.985  0.00  0.00    -0.590 N 
ATOM      4  H   LIG    1       -1.539  -4.784  -1.647  0.00  0.00    +0.420 HD
ATOM      5  C   LIG    1       -1.307  -4.274   0.368  0.00  0.00    +0.120 A 
ATOM      6  C   LIG    1       -1.187  -5.411   1.161  0.00  0.00    -0.010 A 
ATOM      7  C   LIG    1       -1.026  -5.285   2.524  0.00  0.00    +0.070 A 
ATOM      8  C   LIG    1       -0.983  -4.032   3.119  0.00  0.00    -0.050 A 
ATOM      9  C   LIG    1       -1.100  -2.892   2.353  0.00  0.00    +0.150 A 
ATOM     10  F   LIG    1       -1.058  -1.674   2.936  0.00  0.00    -0.130 F 
ATOM     11  C   LIG    1       -1.257  -3.003   0.968  0.00  0.00    -0.140 A 
ENDROOT
BRANCH   1  12
ATOM     12  C   LIG    1       -1.433  -0.534   0.013  0.00  0.00    +0.100 C 
BRANCH  12  14
ATOM     13  C   LIG    1       -0.019   1.526   0.010  0.00  0.00    +0.010 C 
ATOM     14  C   LIG    1        0.002  -0.004   0.002  0.00  0.00    -0.020 C 
ATOM     15  C   LIG    1        0.742  -0.511   1.242  0.00  0.00    +0.010 C 
ENDBRANCH  12  14
ENDBRANCH   1  12
TORSDOF 2
ENDMDL
MODEL      506
REMARK  Name = ZINC000098210409
REMARK                            x       y       z     vdW  Elec       q    Type
REMARK                         _______ _______ _______ _____ _____    ______ ____
ROOT
ATOM      1  C   LIG    1        1.476  -4.028  -2.532  0.00  0.00    +0.060 C 
ATOM      2  C   LIG    1        0.995  -4.684  -3.559  0.00  0.00    -0.100 C 
ENDROOT
BRANCH   2   3
ATOM      3  C   LIG    1        1.016  -6.190  -3.568  0.00  0.00    +0.490 C 
ATOM      4  F   LIG    1        1.768  -6.641  -4.658  0.00  0.00    -0.180 F 
ATOM      5  F   LIG    1       -0.293  -6.674  -3.673  0.00  0.00    -0.180 F 
ATOM      6  F   LIG    1        1.591  -6.655  -2.380  0.00  0.00    -0.180 F 
ENDBRANCH   2   3
BRANCH   1   7
ATOM      7  C   LIG    1        1.455  -2.521  -2.524  0.00  0.00    +0.070 C 
BRANCH   7   8
ATOM      8  C   LIG    1        0.739  -2.027  -1.265  0.00  0.00    +0.020 C 
BRANCH   8   9
ATOM      9  C   LIG    1        0.718  -0.497  -1.257  0.00  0.00    +0.000 C 
BRANCH   9  11
ATOM     10  C   LIG    1       -0.019   1.526   0.010  0.00  0.00    +0.000 C 
ATOM     11  C   LIG    1        0.002  -0.004   0.002  0.00  0.00    -0.010 C 
ENDBRANCH   9  11
ENDBRANCH   8   9
ENDBRANCH   7   8
ENDBRANCH   1   7
TORSDOF 5
ENDMDL
MODEL      507
REMARK  Name = ZINC000098213768
REMARK                            x       y       z     vdW  Elec       q    Type
REMARK                         _______ _______ _______ _____ _____    ______ ____
ROOT
ATOM      1  C   LIG    1       -0.030  -0.130   2.478  0.00  0.00    -0.160 A 
ATOM      2  C   LIG    1        0.167   0.960   3.238  0.00  0.00    +0.220 A 
ATOM      3  N   LIG    1       -0.725   0.971   4.277  0.00  0.00    -0.590 N 
ATOM      4  H   LIG    1       -0.777   1.659   4.959  0.00  0.00    +0.420 HD
ATOM      5  C   LIG    1       -1.537  -0.139   4.209  0.00  0.00    +0.120 A 
ATOM      6  C   LIG    1       -2.585  -0.608   4.994  0.00  0.00    -0.040 A 
ATOM      7  C   LIG    1       -3.218  -1.786   4.658  0.00  0.00    +0.120 A 
ATOM      8  C   LIG    1       -2.819  -2.511   3.542  0.00  0.00    -0.040 A 
ATOM      9  C   LIG    1       -1.792  -2.067   2.758  0.00  0.00    +0.090 A 
ATOM     10  F   LIG    1       -4.236  -2.240   5.422  0.00  0.00    -0.140 F 
ATOM     11  C   LIG    1       -1.141  -0.874   3.076  0.00  0.00    -0.110 A 
ENDROOT
BRANCH   1  12
ATOM     12  C   LIG    1        0.742  -0.511   1.242  0.00  0.00    +0.100 C 
BRANCH  12  14
ATOM     13  C   LIG    1       -0.019   1.526   0.010  0.00  0.00    +0.010 C 
ATOM     14  C   LIG    1        0.002  -0.004   0.002  0.00  0.00    -0.020 C 
ATOM     15  C   LIG    1        0.718  -0.497  -1.257  0.00  0.00    +0.000 C 
ENDBRANCH  12  14
ENDBRANCH   1  12
TORSDOF 2
ENDMDL
MODEL      508
REMARK  Name = ZINC000104148068
REMARK                            x       y       z     vdW  Elec       q    Type
REMARK                         _______ _______ _______ _____ _____    ______ ____
ROOT
ATOM      1  C   LIG    1       -0.017   1.378   0.010  0.00  0.00    +0.060 A 
ATOM      2  C   LIG    1        1.159   2.091   0.002  0.00  0.00    -0.020 A 
ATOM      3  C   LIG    1        2.397   1.424  -0.014  0.00  0.00    +0.010 A 
ATOM      4  C   LIG    1        3.591   2.166  -0.021  0.00  0.00    -0.020 A 
ATOM      5  C   LIG    1        4.808   1.526  -0.037  0.00  0.00    +0.060 A 
ATOM      6  C   LIG    1        4.874   0.145  -0.046  0.00  0.00    +0.000 A 
ATOM      7  C   LIG    1        3.704  -0.628  -0.038  0.00  0.00    +0.120 A 
ATOM      8  N   LIG    1        3.833  -1.968  -0.047  0.00  0.00    -0.650 NA
ATOM      9  S   LIG    1        2.527  -2.834  -0.037  0.00  0.00    +1.070 S 
ATOM     10  N   LIG    1        1.170  -2.050  -0.020  0.00  0.00    -0.650 NA
ATOM     11  C   LIG    1        1.216  -0.704  -0.015  0.00  0.00    +0.120 A 
ATOM     12  C   LIG    1        2.440   0.006  -0.022  0.00  0.00    -0.100 A 
ATOM     13  C   LIG    1        0.002  -0.004   0.002  0.00  0.00    +0.000 A 
ENDROOT
TORSDOF 0
ENDMDL
MODEL      509
REMARK  Name = ZINC000083983293
REMARK                            x       y       z     vdW  Elec       q    Type
REMARK                         _______ _______ _______ _____ _____    ______ ____
ROOT
ATOM      1  C   LIG    1       -0.018   1.503   0.010  0.00  0.00    +0.090 C 
ATOM      2  C   LIG    1        0.002  -0.004   0.002  0.00  0.00    -0.150 A 
ATOM      3  C   LIG    1        0.006  -0.688  -1.198  0.00  0.00    +0.000 A 
ATOM      4  C   LIG    1        0.025  -2.072  -1.203  0.00  0.00    -0.030 A 
ATOM      5  C   LIG    1        0.043  -2.770  -0.012  0.00  0.00    +0.060 A 
ATOM      6  C   LIG    1        0.040  -2.092   1.196  0.00  0.00    -0.140 A 
ATOM      7  C   LIG    1        0.064  -2.884   2.477  0.00  0.00    +0.040 C 
ATOM      8  C   LIG    1       -0.831  -4.114   2.315  0.00  0.00    +0.030 C 
ATOM      9  C   LIG    1       -0.451  -2.033   3.640  0.00  0.00    +0.010 C 
ATOM     10  C   LIG    1        0.317  -0.705   3.656  0.00  0.00    +0.260 C 
ATOM     11  N   LIG    1        0.010   0.006   2.407  0.00  0.00    -0.750 N 
ATOM     12  H   LIG    1       -0.198   0.954   2.418  0.00  0.00    +0.400 HD
ATOM     13 CL   LIG    1       -0.013   0.187  -2.697  0.00  0.00    -0.070 Cl
ATOM     14  C   LIG    1        0.023  -0.706   1.202  0.00  0.00    +0.230 A 
ENDROOT
TORSDOF 0
ENDMDL
MODEL      510
REMARK  Name = ZINC000100283838
REMARK                            x       y       z     vdW  Elec       q    Type
REMARK                         _______ _______ _______ _____ _____    ______ ____
ROOT
ATOM      1  C   LIG    1       -0.018   1.503   0.010  0.00  0.00    +0.100 C 
ATOM      2  C   LIG    1        0.002  -0.004   0.002  0.00  0.00    -0.080 A 
ATOM      3  C   LIG    1        0.006  -0.688  -1.202  0.00  0.00    +0.020 A 
ATOM      4  C   LIG    1        0.024  -2.065  -1.215  0.00  0.00    +0.040 A 
ATOM      5  C   LIG    1        0.040  -2.791  -0.015  0.00  0.00    +0.060 A 
ATOM      6  N   LIG    1        0.057  -4.149  -0.115  0.00  0.00    -0.490 NA
ATOM      7  C   LIG    1        0.751  -4.936   0.608  0.00  0.00    +0.200 C 
ATOM      8  C   LIG    1        1.630  -4.414   1.715  0.00  0.00    +0.050 C 
ATOM      9  C   LIG    1        0.747  -3.731   2.728  0.00  0.00    +0.200 C 
ATOM     10  N   LIG    1        0.052  -2.708   2.420  0.00  0.00    -0.500 NA
ATOM     11  C   LIG    1        0.686  -4.269   4.134  0.00  0.00    +0.140 C 
ATOM     12  C   LIG    1        0.693  -6.420   0.351  0.00  0.00    +0.140 C 
ATOM     13  C   LIG    1        0.037  -2.100   1.201  0.00  0.00    +0.080 A 
ATOM     14  C   LIG    1        0.023  -0.697   1.191  0.00  0.00    +0.030 A 
ENDROOT
TORSDOF 0
ENDMDL
MODEL      511
REMARK  Name = ZINC000104047315
REMARK                            x       y       z     vdW  Elec       q    Type
REMARK                         _______ _______ _______ _____ _____    ______ ____
ROOT
ATOM      1  C   LIG    1       -1.470  -0.421  -0.029  0.00  0.00    +0.030 C 
ATOM      2  C   LIG    1       -1.561  -1.943  -0.107  0.00  0.00    +0.020 C 
ATOM      3  C   LIG    1       -3.027  -2.351   0.082  0.00  0.00    +0.020 C 
ATOM      4  C   LIG    1       -3.419  -2.079   1.533  0.00  0.00    +0.070 C 
ATOM      5  C   LIG    1       -3.058  -0.671   1.925  0.00  0.00    -0.080 A 
ATOM      6  C   LIG    1       -3.668  -0.136   3.051  0.00  0.00    +0.000 A 
ATOM      7  C   LIG    1       -3.375   1.147   3.465  0.00  0.00    +0.000 A 
ATOM      8  C   LIG    1       -2.465   1.907   2.753  0.00  0.00    +0.000 A 
ATOM      9  C   LIG    1       -1.859   1.378   1.633  0.00  0.00    +0.000 A 
ATOM     10  C   LIG    1       -2.156   0.087   1.213  0.00  0.00    -0.070 A 
ENDROOT
BRANCH   1  12
ATOM     11  C   LIG    1        0.673  -0.405  -1.313  0.00  0.00    +0.010 C 
ATOM     12  C   LIG    1        0.002  -0.004   0.002  0.00  0.00    +0.010 C 
ENDBRANCH   1  12
TORSDOF 1
ENDMDL
MODEL      512
REMARK  Name = ZINC000104139856
REMARK                            x       y       z     vdW  Elec       q    Type
REMARK                         _______ _______ _______ _____ _____    ______ ____
ROOT
ATOM      1  C   LIG    1       -0.305   1.561  -0.313  0.00  0.00    +0.100 C 
ATOM      2  C   LIG    1       -0.272   0.063  -0.470  0.00  0.00    -0.140 C 
ATOM      3  C   LIG    1       -0.925  -0.588  -1.385  0.00  0.00    -0.100 C 
ATOM      4  C   LIG    1       -0.694  -2.072  -1.291  0.00  0.00    -0.100 C 
ATOM      5  C   LIG    1       -1.174  -2.825  -0.048  0.00  0.00    +0.000 C 
ATOM      6  C   LIG    1       -1.364  -4.338  -0.169  0.00  0.00    +0.060 C 
ATOM      7  C   LIG    1       -0.496  -2.834  -2.603  0.00  0.00    +0.070 C 
ATOM      8  C   LIG    1        0.258  -2.287  -0.101  0.00  0.00    -0.130 C 
ATOM      9  C   LIG    1        1.434  -3.263  -0.159  0.00  0.00    +0.070 C 
ATOM     10  C   LIG    1       -1.807   0.066  -2.418  0.00  0.00    +0.080 C 
ATOM     11  C   LIG    1        0.527  -0.861   0.412  0.00  0.00    +0.050 C 
ATOM     12  C   LIG    1        2.019  -0.538   0.310  0.00  0.00    +0.040 C 
ENDROOT
TORSDOF 0
ENDMDL
MODEL      513
REMARK  Name = ZINC000104261356
REMARK                            x       y       z     vdW  Elec       q    Type
REMARK                         _______ _______ _______ _____ _____    ______ ____
ROOT
ATOM      1  C   LIG    1       -0.019   1.526   0.010  0.00  0.00    +0.030 C 
ATOM      2  C   LIG    1        0.002  -0.004   0.002  0.00  0.00    -0.020 C 
ATOM      3  C   LIG    1        0.732  -0.504  -1.251  0.00  0.00    +0.020 C 
ATOM      4  C   LIG    1        0.539  -2.017  -1.343  0.00  0.00    +0.080 C 
ATOM      5  C   LIG    1        0.895  -2.680  -0.038  0.00  0.00    -0.070 A 
ATOM      6  C   LIG    1        1.143  -4.070  -0.057  0.00  0.00    -0.050 A 
ATOM      7  C   LIG    1        1.065  -4.797  -1.258  0.00  0.00    +0.020 A 
ATOM      8  C   LIG    1        1.309  -6.136  -1.250  0.00  0.00    +0.000 A 
ATOM      9  C   LIG    1        1.636  -6.800  -0.068  0.00  0.00    +0.000 A 
ATOM     10  C   LIG    1        1.720  -6.128   1.113  0.00  0.00    +0.020 A 
ATOM     11  C   LIG    1        1.474  -4.744   1.142  0.00  0.00    -0.050 A 
ATOM     12  C   LIG    1        1.549  -4.012   2.338  0.00  0.00    +0.020 A 
ATOM     13  C   LIG    1        1.308  -2.676   2.319  0.00  0.00    +0.010 A 
ATOM     14  C   LIG    1        0.983  -2.002   1.133  0.00  0.00    -0.070 A 
ATOM     15  C   LIG    1        0.752  -0.515   1.230  0.00  0.00    +0.070 C 
ENDROOT
TORSDOF 0
ENDMDL
MODEL      514
REMARK  Name = ZINC000104356359
REMARK                            x       y       z     vdW  Elec       q    Type
REMARK                         _______ _______ _______ _____ _____    ______ ____
ROOT
ATOM      1  C   LIG    1       -1.351  -0.718   0.006  0.00  0.00    -0.010 C 
ATOM      2  C   LIG    1       -1.148  -2.253   0.044  0.00  0.00    +0.010 C 
ATOM      3  C   LIG    1       -1.714  -2.803  -1.294  0.00  0.00    +0.000 C 
ATOM      4  C   LIG    1       -1.626  -1.591  -2.228  0.00  0.00    -0.020 C 
ATOM      5  C   LIG    1       -2.550  -1.617  -3.432  0.00  0.00    +0.010 C 
ATOM      6  C   LIG    1       -2.358  -0.290  -4.183  0.00  0.00    +0.000 C 
ATOM      7  C   LIG    1       -2.648   0.908  -3.285  0.00  0.00    +0.000 C 
ATOM      8  C   LIG    1       -1.807   0.864  -1.998  0.00  0.00    +0.020 C 
ATOM      9  C   LIG    1       -2.099  -0.441  -1.294  0.00  0.00    -0.020 C 
ENDROOT
BRANCH   1  11
ATOM     10  C   LIG    1        0.679  -0.186   1.362  0.00  0.00    +0.000 C 
ATOM     11  C   LIG    1        0.002  -0.004   0.002  0.00  0.00    -0.020 C 
ATOM     12  C   LIG    1        0.890  -0.600  -1.093  0.00  0.00    +0.010 C 
ENDBRANCH   1  11
TORSDOF 1
ENDMDL
MODEL      515
REMARK  Name = ZINC000104356375
REMARK                            x       y       z     vdW  Elec       q    Type
REMARK                         _______ _______ _______ _____ _____    ______ ____
ROOT
ATOM      1  C   LIG    1       -1.433  -0.534   0.013  0.00  0.00    -0.010 C 
ATOM      2  C   LIG    1       -2.173  -0.067  -1.252  0.00  0.00    +0.000 C 
ATOM      3  C   LIG    1       -2.942  -1.300  -1.772  0.00  0.00    +0.000 C 
ATOM      4  C   LIG    1       -2.095  -2.488  -1.308  0.00  0.00    -0.030 C 
ATOM      5  C   LIG    1       -2.803  -3.799  -1.349  0.00  0.00    +0.010 C 
ATOM      6  C   LIG    1       -3.437  -4.245  -0.047  0.00  0.00    +0.000 C 
ATOM      7  C   LIG    1       -2.474  -4.026   1.119  0.00  0.00    +0.000 C 
ATOM      8  C   LIG    1       -2.173  -2.531   1.219  0.00  0.00    +0.010 C 
ATOM      9  C   LIG    1       -1.424  -2.080  -0.005  0.00  0.00    -0.010 C 
ENDROOT
BRANCH   1  11
ATOM     10  C   LIG    1       -0.019   1.526   0.010  0.00  0.00    +0.010 C 
ATOM     11  C   LIG    1        0.002  -0.004   0.002  0.00  0.00    -0.020 C 
ATOM     12  C   LIG    1        0.742  -0.511   1.242  0.00  0.00    +0.010 C 
ENDBRANCH   1  11
TORSDOF 1
ENDMDL
MODEL      516
REMARK  Name = ZINC000104676185
REMARK                            x       y       z     vdW  Elec       q    Type
REMARK                         _______ _______ _______ _____ _____    ______ ____
ROOT
ATOM      1  C   LIG    1       -1.537   1.271   0.150  0.00  0.00    +0.140 C 
ATOM      2  C   LIG    1       -1.113  -0.174   0.105  0.00  0.00    +0.170 A 
ATOM      3  C   LIG    1       -1.137  -0.849  -1.112  0.00  0.00    -0.020 A 
ATOM      4  C   LIG    1       -0.755  -2.161  -1.173  0.00  0.00    +0.030 A 
ATOM      5  C   LIG    1       -0.346  -2.789   0.020  0.00  0.00    -0.100 A 
ATOM      6  C   LIG    1        0.060  -4.133   0.037  0.00  0.00    -0.050 A 
ATOM      7  C   LIG    1        0.450  -4.704   1.210  0.00  0.00    +0.010 A 
ATOM      8  C   LIG    1        0.450  -3.972   2.396  0.00  0.00    +0.040 A 
ATOM      9  C   LIG    1        0.062  -2.667   2.416  0.00  0.00    +0.040 A 
ATOM     10  C   LIG    1        0.066  -4.939  -1.237  0.00  0.00    +0.100 C 
ATOM     11  C   LIG    1       -0.346  -2.042   1.224  0.00  0.00    +0.150 A 
ATOM     12 CL   LIG    1       -0.774  -3.028  -2.676  0.00  0.00    -0.040 Cl
ATOM     13  N   LIG    1       -0.726  -0.761   1.212  0.00  0.00    -0.470 NA
ENDROOT
TORSDOF 0
ENDMDL
MODEL      517
REMARK  Name = ZINC000072220723
REMARK                            x       y       z     vdW  Elec       q    Type
REMARK                         _______ _______ _______ _____ _____    ______ ____
ROOT
ATOM      1  C   LIG    1       -0.018   1.503   0.010  0.00  0.00    +0.130 C 
ATOM      2  C   LIG    1        0.002  -0.004   0.002  0.00  0.00    -0.140 A 
ATOM      3  C   LIG    1        0.009  -0.798  -1.083  0.00  0.00    +0.110 A 
ATOM      4  N   LIG    1        0.028  -2.111  -0.699  0.00  0.00    -0.590 N 
ATOM      5  H   LIG    1        0.036  -2.868  -1.305  0.00  0.00    +0.420 HD
ATOM      6  C   LIG    1        0.035  -2.197   0.676  0.00  0.00    +0.110 A 
ATOM      7  C   LIG    1        0.054  -3.264   1.568  0.00  0.00    -0.090 A 
ATOM      8  C   LIG    1        0.056  -3.022   2.925  0.00  0.00    +0.040 A 
ATOM      9  C   LIG    1        0.040  -1.722   3.412  0.00  0.00    -0.100 A 
ATOM     10  C   LIG    1        0.021  -0.659   2.553  0.00  0.00    +0.050 A 
ATOM     11  C   LIG    1        0.043  -1.482   4.899  0.00  0.00    +0.100 C 
ATOM     12  C   LIG    1        0.072  -4.680   1.052  0.00  0.00    +0.090 C 
ATOM     13 CL   LIG    1       -0.006  -0.239  -2.726  0.00  0.00    -0.010 Cl
ATOM     14  C   LIG    1        0.025  -0.882   1.175  0.00  0.00    -0.090 A 
ENDROOT
TORSDOF 0
ENDMDL
MODEL      518
REMARK  Name = ZINC000022116454
REMARK                            x       y       z     vdW  Elec       q    Type
REMARK                         _______ _______ _______ _____ _____    ______ ____
ROOT
ATOM      1  C   LIG    1       -0.018   1.503   0.010  0.00  0.00    +0.180 C 
ATOM      2  C   LIG    1        0.002  -0.004   0.002  0.00  0.00    +0.180 C 
ATOM      3  N   LIG    1        0.008  -0.756  -1.040  0.00  0.00    -0.480 NA
ATOM      4  C   LIG    1        0.028  -2.095  -0.760  0.00  0.00    +0.080 A 
ATOM      5  C   LIG    1        0.040  -3.214  -1.599  0.00  0.00    +0.060 A 
ATOM      6  C   LIG    1        0.060  -4.482  -1.058  0.00  0.00    +0.040 A 
ATOM      7  C   LIG    1        0.068  -4.661   0.314  0.00  0.00    +0.030 A 
ATOM      8  C   LIG    1        0.056  -3.558   1.155  0.00  0.00    +0.000 A 
ATOM      9 CL   LIG    1        0.067  -3.778   2.877  0.00  0.00    -0.060 Cl
ATOM     10  C   LIG    1        0.036  -2.293   0.623  0.00  0.00    -0.130 A 
ATOM     11  C   LIG    1        0.026  -0.904   1.221  0.00  0.00    -0.050 C 
ATOM     12  C   LIG    1       -1.228  -0.692   2.072  0.00  0.00    +0.070 C 
ATOM     13  C   LIG    1        1.290  -0.663   2.048  0.00  0.00    +0.070 C 
ENDROOT
TORSDOF 0
ENDMDL
MODEL      519
REMARK  Name = ZINC000001841085
REMARK                            x       y       z     vdW  Elec       q    Type
REMARK                         _______ _______ _______ _____ _____    ______ ____
ROOT
ATOM      1  C   LIG    1       -0.013   1.503   0.010  0.00  0.00    +0.090 C 
ATOM      2  C   LIG    1        0.004  -0.004   0.002  0.00  0.00    -0.080 A 
ATOM      3  C   LIG    1       -0.098  -0.685  -1.209  0.00  0.00    +0.010 A 
ATOM      4  C   LIG    1       -0.085  -2.046  -1.252  0.00  0.00    -0.080 A 
ATOM      5  C   LIG    1        0.033  -2.777  -0.058  0.00  0.00    -0.050 A 
ATOM      6  C   LIG    1        0.051  -4.183  -0.062  0.00  0.00    +0.020 A 
ATOM      7  C   LIG    1        0.167  -4.858   1.114  0.00  0.00    +0.000 A 
ATOM      8  C   LIG    1        0.269  -4.176   2.326  0.00  0.00    +0.000 A 
ATOM      9  C   LIG    1        0.256  -2.816   2.368  0.00  0.00    +0.020 A 
ATOM     10  C   LIG    1        0.137  -2.084   1.174  0.00  0.00    -0.040 A 
ATOM     11  C   LIG    1       -0.196  -2.763  -2.572  0.00  0.00    +0.090 C 
ATOM     12  C   LIG    1        0.126  -0.679   1.177  0.00  0.00    -0.080 A 
ATOM     13  C   LIG    1        0.242   0.076   2.476  0.00  0.00    +0.090 C 
ENDROOT
TORSDOF 0
ENDMDL
MODEL      520
REMARK  Name = ZINC000001656074
REMARK                            x       y       z     vdW  Elec       q    Type
REMARK                         _______ _______ _______ _____ _____    ______ ____
ROOT
ATOM      1  C   LIG    1       -0.019   1.526   0.010  0.00  0.00    +0.010 C 
ATOM      2  C   LIG    1        0.002  -0.004   0.002  0.00  0.00    -0.020 C 
ATOM      3  C   LIG    1        0.718  -0.497  -1.257  0.00  0.00    +0.000 C 
ATOM      4  C   LIG    1        2.154   0.032  -1.268  0.00  0.00    +0.010 C 
ATOM      5  C   LIG    1        2.894  -0.475  -0.028  0.00  0.00    +0.000 C 
ATOM      6  C   LIG    1        2.178   0.019   1.231  0.00  0.00    +0.010 C 
ATOM      7  C   LIG    1        0.742  -0.511   1.242  0.00  0.00    +0.000 C 
ENDROOT
BRANCH   5   8
ATOM      8  C   LIG    1        4.329   0.055  -0.039  0.00  0.00    -0.070 C 
ATOM      9  C   LIG    1        5.045  -0.439  -1.298  0.00  0.00    +0.020 C 
ATOM     10  C   LIG    1        5.069  -0.452   1.200  0.00  0.00    +0.020 C 
ATOM     11  C   LIG    1        4.308   1.585  -0.031  0.00  0.00    +0.020 C 
ENDBRANCH   5   8
TORSDOF 1
ENDMDL
MODEL      521
REMARK  Name = ZINC000107998484
REMARK                            x       y       z     vdW  Elec       q    Type
REMARK                         _______ _______ _______ _____ _____    ______ ____
ROOT
ATOM      1  C   LIG    1        0.859  -1.932  -1.480  0.00  0.00    -0.210 A 
ATOM      2  C   LIG    1        0.345  -2.857  -0.564  0.00  0.00    +0.100 A 
ATOM      3  C   LIG    1        0.491  -4.207  -0.798  0.00  0.00    -0.100 A 
ATOM      4  C   LIG    1        1.144  -4.651  -1.936  0.00  0.00    +0.090 A 
ATOM      5  C   LIG    1        1.656  -3.747  -2.847  0.00  0.00    -0.020 A 
ATOM      6  C   LIG    1        1.514  -2.388  -2.631  0.00  0.00    +0.150 A 
ATOM      7  F   LIG    1        2.014  -1.504  -3.522  0.00  0.00    -0.120 F 
ENDROOT
BRANCH   3   8
ATOM      8  C   LIG    1       -0.063  -5.204   0.187  0.00  0.00    +0.020 C 
ATOM      9  C   LIG    1        1.075  -6.072   0.728  0.00  0.00    +0.030 C 
ATOM     10  C   LIG    1       -1.095  -6.092  -0.511  0.00  0.00    +0.030 C 
ENDBRANCH   3   8
BRANCH   1  11
ATOM     11  C   LIG    1        0.707  -0.490  -1.238  0.00  0.00    +0.390 C 
ATOM     12  O   LIG    1        1.150   0.308  -2.036  0.00  0.00    -0.440 OA
BRANCH  11  14
ATOM     13  C   LIG    1       -0.019   1.526   0.010  0.00  0.00    +0.030 C 
ATOM     14  C   LIG    1        0.002  -0.004   0.002  0.00  0.00    +0.030 C 
ENDBRANCH  11  14
ENDBRANCH   1  11
TORSDOF 3
ENDMDL
MODEL      522
REMARK  Name = ZINC000111352552
REMARK                            x       y       z     vdW  Elec       q    Type
REMARK                         _______ _______ _______ _____ _____    ______ ____
ROOT
ATOM      1  C   LIG    1       -2.848  -2.593   0.015  0.00  0.00    -0.020 C 
ATOM      2  C   LIG    1       -3.553  -2.270  -1.318  0.00  0.00    +0.000 C 
ATOM      3  C   LIG    1       -4.436  -3.485  -1.654  0.00  0.00    +0.000 C 
ATOM      4  C   LIG    1       -4.237  -4.503  -0.513  0.00  0.00    -0.030 C 
ATOM      5  C   LIG    1       -4.228  -5.930  -1.064  0.00  0.00    +0.000 C 
ATOM      6  C   LIG    1       -2.854  -4.140   0.087  0.00  0.00    +0.010 C 
ENDROOT
BRANCH   1   7
ATOM      7  C   LIG    1       -1.413  -2.063   0.004  0.00  0.00    +0.010 C 
BRANCH   7   8
ATOM      8  C   LIG    1       -1.433  -0.534   0.013  0.00  0.00    +0.000 C 
BRANCH   8  10
ATOM      9  C   LIG    1       -0.019   1.526   0.010  0.00  0.00    +0.000 C 
ATOM     10  C   LIG    1        0.002  -0.004   0.002  0.00  0.00    -0.010 C 
ENDBRANCH   8  10
ENDBRANCH   7   8
ENDBRANCH   1   7
TORSDOF 3
ENDMDL
MODEL      523
REMARK  Name = ZINC000111352547
REMARK                            x       y       z     vdW  Elec       q    Type
REMARK                         _______ _______ _______ _____ _____    ______ ____
ROOT
ATOM      1  C   LIG    1       -2.848  -2.593   0.015  0.00  0.00    -0.020 C 
ATOM      2  C   LIG    1       -3.530  -2.302   1.375  0.00  0.00    +0.000 C 
ATOM      3  C   LIG    1       -4.645  -3.363   1.474  0.00  0.00    +0.000 C 
ATOM      4  C   LIG    1       -4.221  -4.532   0.568  0.00  0.00    -0.030 C 
ATOM      5  C   LIG    1       -4.072  -5.810   1.396  0.00  0.00    +0.000 C 
ATOM      6  C   LIG    1       -2.863  -4.140  -0.055  0.00  0.00    +0.010 C 
ENDROOT
BRANCH   1   7
ATOM      7  C   LIG    1       -1.413  -2.063   0.004  0.00  0.00    +0.010 C 
BRANCH   7   8
ATOM      8  C   LIG    1       -1.433  -0.534   0.013  0.00  0.00    +0.000 C 
BRANCH   8  10
ATOM      9  C   LIG    1       -0.019   1.526   0.010  0.00  0.00    +0.000 C 
ATOM     10  C   LIG    1        0.002  -0.004   0.002  0.00  0.00    -0.010 C 
ENDBRANCH   8  10
ENDBRANCH   7   8
ENDBRANCH   1   7
TORSDOF 3
ENDMDL
MODEL      524
REMARK  Name = ZINC000111341176
REMARK                            x       y       z     vdW  Elec       q    Type
REMARK                         _______ _______ _______ _____ _____    ______ ____
ROOT
ATOM      1  C   LIG    1       -0.018   1.503   0.010  0.00  0.00    +0.090 C 
ATOM      2  C   LIG    1        0.002  -0.004   0.002  0.00  0.00    -0.070 A 
ATOM      3  C   LIG    1        0.006  -0.689  -1.196  0.00  0.00    -0.010 A 
ATOM      4  C   LIG    1        0.025  -2.072  -1.205  0.00  0.00    +0.010 A 
ATOM      5  C   LIG    1        0.040  -2.776  -0.015  0.00  0.00    -0.010 A 
ATOM      6  C   LIG    1        0.036  -2.102   1.189  0.00  0.00    -0.070 A 
ATOM      7  C   LIG    1        0.052  -2.870   2.485  0.00  0.00    +0.090 C 
ATOM      8  C   LIG    1        0.023  -0.708   1.204  0.00  0.00    -0.060 A 
ENDROOT
BRANCH   8   9
ATOM      9  C   LIG    1        0.019   0.022   2.495  0.00  0.00    -0.040 A 
ATOM     10  C   LIG    1       -1.068  -0.091   3.360  0.00  0.00    +0.010 A 
ATOM     11  C   LIG    1       -1.066   0.590   4.560  0.00  0.00    +0.000 A 
ATOM     12  C   LIG    1        0.012   1.385   4.905  0.00  0.00    +0.000 A 
ATOM     13  C   LIG    1        1.093   1.502   4.051  0.00  0.00    +0.000 A 
ATOM     14  C   LIG    1        1.105   0.820   2.851  0.00  0.00    +0.010 A 
ENDBRANCH   8   9
TORSDOF 1
ENDMDL
MODEL      525
REMARK  Name = ZINC000111352550
REMARK                            x       y       z     vdW  Elec       q    Type
REMARK                         _______ _______ _______ _____ _____    ______ ____
ROOT
ATOM      1  C   LIG    1       -2.848  -2.593   0.015  0.00  0.00    -0.020 C 
ATOM      2  C   LIG    1       -3.526  -2.254   1.359  0.00  0.00    +0.010 C 
ATOM      3  C   LIG    1       -4.405  -3.492   1.664  0.00  0.00    +0.010 C 
ATOM      4  C   LIG    1       -3.521  -4.667   1.177  0.00  0.00    -0.030 C 
ATOM      5  C   LIG    1       -4.384  -5.889   0.854  0.00  0.00    +0.000 C 
ATOM      6  C   LIG    1       -2.845  -4.127  -0.102  0.00  0.00    +0.000 C 
ENDROOT
BRANCH   1   7
ATOM      7  C   LIG    1       -1.413  -2.063   0.004  0.00  0.00    +0.010 C 
BRANCH   7   8
ATOM      8  C   LIG    1       -1.433  -0.534   0.013  0.00  0.00    +0.000 C 
BRANCH   8  10
ATOM      9  C   LIG    1       -0.019   1.526   0.010  0.00  0.00    +0.000 C 
ATOM     10  C   LIG    1        0.002  -0.004   0.002  0.00  0.00    -0.010 C 
ENDBRANCH   8  10
ENDBRANCH   7   8
ENDBRANCH   1   7
TORSDOF 3
ENDMDL
MODEL      526
REMARK  Name = ZINC000111336541
REMARK                            x       y       z     vdW  Elec       q    Type
REMARK                         _______ _______ _______ _____ _____    ______ ____
ROOT
ATOM      1  C   LIG    1        1.327   0.391   4.584  0.00  0.00    +0.060 C 
ENDROOT
BRANCH   1   2
ATOM      2  C   LIG    1        0.759  -0.079   5.898  0.00  0.00    -0.080 A 
ATOM      3  C   LIG    1       -0.357   0.540   6.430  0.00  0.00    +0.000 A 
ATOM      4  C   LIG    1       -0.878   0.110   7.635  0.00  0.00    +0.000 A 
ATOM      5  C   LIG    1       -0.283  -0.941   8.309  0.00  0.00    -0.010 A 
ATOM      6  C   LIG    1        0.832  -1.560   7.778  0.00  0.00    +0.000 A 
ATOM      7  C   LIG    1        1.351  -1.132   6.570  0.00  0.00    +0.000 A 
ENDBRANCH   1   2
BRANCH   1   8
ATOM      8  C   LIG    1        0.664  -0.377   3.438  0.00  0.00    +0.010 C 
BRANCH   8   9
ATOM      9  C   LIG    1        1.240   0.100   2.104  0.00  0.00    +0.040 C 
BRANCH   9  12
ATOM     10  C   LIG    1       -0.018   1.503   0.010  0.00  0.00    +0.060 C 
ATOM     11  C   LIG    1        0.002  -0.004   0.002  0.00  0.00    -0.050 C 
ATOM     12  C   LIG    1        0.588  -0.657   0.976  0.00  0.00    -0.050 C 
ENDBRANCH   9  12
ENDBRANCH   8   9
ENDBRANCH   1   8
TORSDOF 4
ENDMDL
MODEL      527
REMARK  Name = ZINC000071785921
REMARK                            x       y       z     vdW  Elec       q    Type
REMARK                         _______ _______ _______ _____ _____    ______ ____
ROOT
ATOM      1  C   LIG    1       -0.018   1.503   0.010  0.00  0.00    +0.070 C 
ATOM      2  C   LIG    1        0.002  -0.004   0.002  0.00  0.00    -0.010 C 
ATOM      3  C   LIG    1        0.588  -0.657   0.976  0.00  0.00    -0.130 C 
ATOM      4  C   LIG    1        1.326  -0.189   2.255  0.00  0.00    +0.080 C 
ATOM      5  C   LIG    1        0.488  -0.923   3.349  0.00  0.00    +0.040 C 
ATOM      6  C   LIG    1        0.109  -2.265   2.677  0.00  0.00    +0.030 C 
ATOM      7  C   LIG    1        2.619  -0.994   2.129  0.00  0.00    -0.090 A 
ATOM      8  C   LIG    1        3.940  -0.818   2.519  0.00  0.00    +0.020 A 
ATOM      9  C   LIG    1        4.899  -1.788   2.280  0.00  0.00    +0.010 A 
ATOM     10  C   LIG    1        4.545  -2.978   1.671  0.00  0.00    +0.000 A 
ATOM     11  C   LIG    1        3.230  -3.203   1.297  0.00  0.00    +0.020 A 
ATOM     12  C   LIG    1        2.280  -2.238   1.536  0.00  0.00    -0.100 A 
ATOM     13  C   LIG    1        0.779  -2.168   1.257  0.00  0.00    +0.070 C 
ENDROOT
TORSDOF 0
ENDMDL
MODEL      528
REMARK  Name = ZINC000064219816
REMARK                            x       y       z     vdW  Elec       q    Type
REMARK                         _______ _______ _______ _____ _____    ______ ____
ROOT
ATOM      1  C   LIG    1       -0.018   1.503   0.010  0.00  0.00    +0.100 C 
ATOM      2  C   LIG    1        0.002  -0.004   0.002  0.00  0.00    -0.070 A 
ATOM      3  C   LIG    1        0.006  -0.688  -1.199  0.00  0.00    +0.040 A 
ATOM      4  C   LIG    1        0.024  -2.072  -1.207  0.00  0.00    -0.020 A 
ATOM      5  C   LIG    1        0.039  -2.770  -0.013  0.00  0.00    -0.070 A 
ATOM      6  C   LIG    1        0.036  -2.085   1.188  0.00  0.00    -0.020 A 
ATOM      7 CL   LIG    1        0.055  -2.960   2.687  0.00  0.00    -0.050 Cl
ATOM      8  C   LIG    1        0.060  -4.277  -0.021  0.00  0.00    +0.110 C 
ATOM      9 CL   LIG    1        0.029  -2.931  -2.716  0.00  0.00    -0.050 Cl
ATOM     10  C   LIG    1        0.023  -0.701   1.195  0.00  0.00    +0.040 A 
ENDROOT
TORSDOF 0
ENDMDL
MODEL      529
REMARK  Name = ZINC000085386032
REMARK                            x       y       z     vdW  Elec       q    Type
REMARK                         _______ _______ _______ _____ _____    ______ ____
ROOT
ATOM      1  C   LIG    1       -0.018   1.503   0.010  0.00  0.00    +0.100 C 
ATOM      2  C   LIG    1        0.002  -0.004   0.002  0.00  0.00    -0.080 A 
ATOM      3  C   LIG    1        0.005  -0.684  -1.213  0.00  0.00    +0.050 A 
ATOM      4  C   LIG    1        0.024  -2.046  -1.256  0.00  0.00    -0.010 A 
ATOM      5  C   LIG    1        0.040  -2.781  -0.057  0.00  0.00    +0.130 A 
ATOM      6  N   LIG    1        0.058  -4.118  -0.068  0.00  0.00    -0.460 NA
ATOM      7  C   LIG    1        0.073  -4.808   1.046  0.00  0.00    +0.160 A 
ATOM      8  C   LIG    1        0.071  -4.187   2.294  0.00  0.00    -0.030 A 
ATOM      9  C   LIG    1        0.052  -2.824   2.376  0.00  0.00    +0.090 A 
ATOM     10  C   LIG    1        0.095  -6.313   0.977  0.00  0.00    +0.130 C 
ATOM     11  C   LIG    1        0.036  -2.086   1.177  0.00  0.00    -0.100 A 
ATOM     12 CL   LIG    1        0.028  -2.870  -2.784  0.00  0.00    -0.040 Cl
ATOM     13  C   LIG    1        0.022  -0.682   1.183  0.00  0.00    +0.050 A 
ENDROOT
TORSDOF 0
ENDMDL
MODEL      530
REMARK  Name = ZINC000002540236
REMARK                            x       y       z     vdW  Elec       q    Type
REMARK                         _______ _______ _______ _____ _____    ______ ____
ROOT
ATOM      1  C   LIG    1       -0.018   1.503   0.010  0.00  0.00    +0.130 C 
ATOM      2  C   LIG    1        0.002  -0.004   0.002  0.00  0.00    -0.030 A 
ATOM      3  C   LIG    1        0.006  -0.688  -1.199  0.00  0.00    +0.020 A 
ATOM      4  C   LIG    1        0.025  -2.072  -1.207  0.00  0.00    +0.130 A 
ATOM      5  C   LIG    1        0.041  -2.771  -0.011  0.00  0.00    -0.080 A 
ATOM      6  C   LIG    1        0.037  -2.085   1.190  0.00  0.00    -0.030 A 
ATOM      7  C   LIG    1        0.054  -2.844   2.492  0.00  0.00    +0.120 C 
ATOM      8 CL   LIG    1        0.065  -4.507  -0.019  0.00  0.00    -0.030 Cl
ATOM      9  F   LIG    1        0.029  -2.741  -2.381  0.00  0.00    -0.120 F 
ATOM     10  C   LIG    1        0.023  -0.702   1.197  0.00  0.00    -0.050 A 
ATOM     11 CL   LIG    1        0.019   0.159   2.704  0.00  0.00    -0.040 Cl
ENDROOT
TORSDOF 0
ENDMDL
MODEL      531
REMARK  Name = ZINC000306621462
REMARK                            x       y       z     vdW  Elec       q    Type
REMARK                         _______ _______ _______ _____ _____    ______ ____
ROOT
ATOM      1  C   LIG    1       -2.125  -0.137  -1.266  0.00  0.00    +0.060 A 
ATOM      2  N   LIG    1       -2.140  -0.843  -2.346  0.00  0.00    -0.470 NA
ATOM      3  C   LIG    1       -2.794  -0.348  -3.378  0.00  0.00    +0.080 A 
ATOM      4  C   LIG    1       -3.362   0.841  -3.155  0.00  0.00    -0.080 A 
ATOM      5  S   LIG    1       -3.008   1.309  -1.494  0.00  0.00    +0.120 S 
ENDROOT
BRANCH   3   6
ATOM      6  C   LIG    1       -2.894  -1.064  -4.700  0.00  0.00    +0.070 C 
ATOM      7  C   LIG    1       -4.334  -1.437  -5.091  0.00  0.00    +0.020 C 
ATOM      8  C   LIG    1       -3.964  -1.037  -6.529  0.00  0.00    +0.010 C 
ATOM      9  C   LIG    1       -2.893  -0.120  -5.914  0.00  0.00    +0.020 C 
ENDBRANCH   3   6
BRANCH   1  10
ATOM     10  C   LIG    1       -1.433  -0.534   0.013  0.00  0.00    +0.150 C 
BRANCH  10  12
ATOM     11  C   LIG    1       -0.019   1.526   0.010  0.00  0.00    +0.020 C 
ATOM     12  C   LIG    1        0.002  -0.004   0.002  0.00  0.00    -0.010 C 
ATOM     13  C   LIG    1        0.742  -0.511   1.242  0.00  0.00    +0.030 C 
ENDBRANCH  10  12
ENDBRANCH   1  10
TORSDOF 3
ENDMDL
MODEL      532
REMARK  Name = ZINC000116467128
REMARK                            x       y       z     vdW  Elec       q    Type
REMARK                         _______ _______ _______ _____ _____    ______ ____
ROOT
ATOM      1  C   LIG    1       -0.746   1.894  -1.211  0.00  0.00    -0.170 A 
ATOM      2  C   LIG    1       -1.762   1.139  -1.767  0.00  0.00    +0.070 A 
ATOM      3  C   LIG    1       -2.430   1.597  -2.886  0.00  0.00    +0.020 A 
ATOM      4  C   LIG    1       -2.083   2.810  -3.451  0.00  0.00    +0.070 A 
ATOM      5  C   LIG    1       -1.068   3.566  -2.895  0.00  0.00    -0.170 A 
ATOM      6  C   LIG    1       -0.402   3.110  -1.772  0.00  0.00    +0.080 A 
ENDROOT
BRANCH   1   8
ATOM      7  F   LIG    1        0.002  -0.004   0.002  0.00  0.00    -0.200 F 
ATOM      8  C   LIG    1       -0.017   1.395   0.010  0.00  0.00    +0.440 C 
ATOM      9  F   LIG    1        1.296   1.879  -0.000  0.00  0.00    -0.200 F 
ENDBRANCH   1   8
BRANCH   5  10
ATOM     10  C   LIG    1       -0.689   4.888  -3.510  0.00  0.00    +0.440 C 
ATOM     11  F   LIG    1       -0.208   5.745  -2.514  0.00  0.00    -0.200 F 
ATOM     12  F   LIG    1       -1.814   5.460  -4.114  0.00  0.00    -0.200 F 
ENDBRANCH   5  10
TORSDOF 2
ENDMDL
MODEL      533
REMARK  Name = ZINC000195762987
REMARK                            x       y       z     vdW  Elec       q    Type
REMARK                         _______ _______ _______ _____ _____    ______ ____
ROOT
ATOM      1  C   LIG    1        1.503  -2.548   2.473  0.00  0.00    +0.010 C 
ENDROOT
BRANCH   1   2
ATOM      2  C   LIG    1        0.763  -2.041   1.233  0.00  0.00    +0.000 C 
BRANCH   2   3
ATOM      3  C   LIG    1        0.742  -0.511   1.242  0.00  0.00    +0.000 C 
BRANCH   3   5
ATOM      4  C   LIG    1       -0.019   1.526   0.010  0.00  0.00    +0.000 C 
ATOM      5  C   LIG    1        0.002  -0.004   0.002  0.00  0.00    -0.010 C 
ENDBRANCH   3   5
ENDBRANCH   2   3
ENDBRANCH   1   2
BRANCH   1   6
ATOM      6  C   LIG    1        1.524  -4.077   2.464  0.00  0.00    -0.270 C 
BRANCH   6   7
ATOM      7 SI   LIG    1        2.425  -4.695   3.974  0.00  0.00    +1.000 Si
ATOM      8  C   LIG    1        4.172  -4.050   3.960  0.00  0.00    -0.240 C 
ATOM      9  C   LIG    1        2.450  -6.557   3.963  0.00  0.00    -0.240 C 
ATOM     10  C   LIG    1        1.553  -4.094   5.506  0.00  0.00    -0.240 C 
ENDBRANCH   6   7
ENDBRANCH   1   6
TORSDOF 5
ENDMDL
MODEL      534
REMARK  Name = ZINC000196653594
REMARK                            x       y       z     vdW  Elec       q    Type
REMARK                         _______ _______ _______ _____ _____    ______ ____
ROOT
ATOM      1  C   LIG    1       -0.019   1.526   0.010  0.00  0.00    +0.030 C 
ATOM      2  C   LIG    1        0.002  -0.004   0.002  0.00  0.00    +0.040 C 
ATOM      3  C   LIG    1       -1.434  -0.528   0.001  0.00  0.00    +0.030 C 
ATOM      4  C   LIG    1       -1.407  -2.049   0.203  0.00  0.00    +0.170 C 
ATOM      5  N   LIG    1       -0.830  -2.315   1.528  0.00  0.00    -0.740 N 
ATOM      6  H   LIG    1       -1.237  -2.967   2.120  0.00  0.00    +0.400 HD
ATOM      7  C   LIG    1        0.317  -1.614   1.921  0.00  0.00    +0.210 A 
ATOM      8  C   LIG    1        1.028  -2.050   3.032  0.00  0.00    -0.030 A 
ATOM      9  C   LIG    1        2.159  -1.370   3.440  0.00  0.00    +0.020 A 
ATOM     10  C   LIG    1        2.583  -0.253   2.739  0.00  0.00    +0.040 A 
ATOM     11  C   LIG    1        1.876   0.180   1.631  0.00  0.00    +0.020 A 
ATOM     12  F   LIG    1        3.688   0.414   3.138  0.00  0.00    -0.150 F 
ATOM     13  C   LIG    1       -0.544  -2.700  -0.880  0.00  0.00    +0.030 C 
ATOM     14  C   LIG    1       -2.830  -2.606   0.136  0.00  0.00    +0.040 C 
ATOM     15  C   LIG    1        0.742  -0.498   1.217  0.00  0.00    -0.120 A 
ENDROOT
TORSDOF 0
ENDMDL
MODEL      535
REMARK  Name = ZINC000078286358
REMARK                            x       y       z     vdW  Elec       q    Type
REMARK                         _______ _______ _______ _____ _____    ______ ____
ROOT
ATOM      1  C   LIG    1       -1.661  -1.976   0.007  0.00  0.00    -0.170 A 
ATOM      2  C   LIG    1       -0.589  -2.873  -0.002  0.00  0.00    +0.050 A 
ATOM      3  C   LIG    1       -0.830  -4.231  -0.007  0.00  0.00    +0.000 A 
ATOM      4  C   LIG    1       -2.130  -4.706  -0.003  0.00  0.00    +0.040 A 
ATOM      5  C   LIG    1       -3.197  -3.824   0.006  0.00  0.00    -0.080 A 
ATOM      6  C   LIG    1       -2.972  -2.464   0.017  0.00  0.00    +0.070 A 
ENDROOT
BRANCH   5   7
ATOM      7  C   LIG    1       -4.609  -4.352   0.010  0.00  0.00    -0.030 C 
ATOM      8  C   LIG    1       -5.345  -3.849  -1.234  0.00  0.00    +0.040 C 
ATOM      9  C   LIG    1       -5.333  -3.861   1.265  0.00  0.00    +0.040 C 
ATOM     10  C   LIG    1       -4.581  -5.882   0.002  0.00  0.00    +0.030 C 
ENDBRANCH   5   7
BRANCH   1  11
ATOM     11  C   LIG    1       -1.412  -0.526   0.013  0.00  0.00    +0.390 C 
ATOM     12  O   LIG    1       -2.344   0.250   0.026  0.00  0.00    -0.450 OA
BRANCH  11  14
ATOM     13  C   LIG    1       -0.019   1.526   0.010  0.00  0.00    +0.030 C 
ATOM     14  C   LIG    1        0.002  -0.004   0.002  0.00  0.00    +0.030 C 
ENDBRANCH  11  14
ENDBRANCH   1  11
TORSDOF 3
ENDMDL
MODEL      536
REMARK  Name = ZINC000001722660
REMARK                            x       y       z     vdW  Elec       q    Type
REMARK                         _______ _______ _______ _____ _____    ______ ____
ROOT
ATOM      1  C   LIG    1       -0.018   1.503   0.010  0.00  0.00    +0.090 C 
ATOM      2  C   LIG    1        0.002  -0.004   0.002  0.00  0.00    -0.050 A 
ATOM      3  C   LIG    1        0.006  -0.681  -1.198  0.00  0.00    -0.020 A 
ATOM      4  C   LIG    1        0.025  -2.072  -1.214  0.00  0.00    +0.140 A 
ATOM      5  C   LIG    1        0.041  -2.773   0.001  0.00  0.00    -0.110 A 
ATOM      6  C   LIG    1        0.059  -4.206  -0.343  0.00  0.00    -0.100 A 
ATOM      7  C   LIG    1        0.052  -4.280  -1.743  0.00  0.00    +0.140 A 
ATOM      8  C   LIG    1        0.066  -5.527  -2.361  0.00  0.00    -0.020 A 
ATOM      9  C   LIG    1        0.085  -6.674  -1.598  0.00  0.00    +0.050 A 
ATOM     10  C   LIG    1        0.091  -6.600  -0.213  0.00  0.00    -0.020 A 
ATOM     11  C   LIG    1        0.079  -5.374   0.416  0.00  0.00    +0.060 A 
ATOM     12  C   LIG    1        0.038  -2.076   1.208  0.00  0.00    +0.070 A 
ATOM     13  N   LIG    1        0.032  -2.992  -2.248  0.00  0.00    -0.620 N 
ATOM     14  H   LIG    1        0.024  -2.765  -3.191  0.00  0.00    +0.420 HD
ATOM     15  C   LIG    1        0.023  -0.698   1.202  0.00  0.00    -0.120 A 
ATOM     16  C   LIG    1        0.020   0.058   2.506  0.00  0.00    +0.090 C 
ENDROOT
TORSDOF 0
ENDMDL
MODEL      537
REMARK  Name = ZINC000001648370
REMARK                            x       y       z     vdW  Elec       q    Type
REMARK                         _______ _______ _______ _____ _____    ______ ____
ROOT
ATOM      1  C   LIG    1       -1.250  -0.528   0.287  0.00  0.00    -0.090 C 
ENDROOT
BRANCH   1   3
ATOM      2  C   LIG    1        0.248   1.471   0.257  0.00  0.00    +0.010 C 
ATOM      3  C   LIG    1        0.204  -0.058   0.225  0.00  0.00    +0.010 C 
ENDBRANCH   1   3
BRANCH   1   4
ATOM      4  C   LIG    1       -1.934   0.089   1.509  0.00  0.00    +0.010 C 
ATOM      5  C   LIG    1       -1.201  -0.351   2.779  0.00  0.00    +0.020 C 
ENDBRANCH   1   4
BRANCH   1   6
ATOM      6  C   LIG    1       -1.289  -2.054   0.396  0.00  0.00    +0.020 C 
ATOM      7  C   LIG    1       -0.624  -2.670  -0.836  0.00  0.00    +0.010 C 
ENDBRANCH   1   6
BRANCH   1   8
ATOM      8  C   LIG    1       -1.983  -0.089  -0.983  0.00  0.00    +0.210 C 
BRANCH   8   9
ATOM      9  O   LIG    1       -2.070   1.337  -1.013  0.00  0.00    -0.550 OA
ATOM     10  H   LIG    1       -2.510   1.721  -0.242  0.00  0.00    +0.370 HD
ENDBRANCH   8   9
BRANCH   8  11
ATOM     11  C   LIG    1       -3.392  -0.686  -0.991  0.00  0.00    -0.010 C 
BRANCH  11  12
ATOM     12  C   LIG    1       -4.080  -0.350  -2.316  0.00  0.00    -0.010 C 
ATOM     13  C   LIG    1       -5.529  -0.839  -2.276  0.00  0.00    +0.000 C 
ATOM     14  C   LIG    1       -3.340  -1.041  -3.464  0.00  0.00    +0.010 C 
ENDBRANCH  11  12
ENDBRANCH   8  11
ENDBRANCH   1   8
TORSDOF 7
ENDMDL
MODEL      538
REMARK  Name = ZINC000217607672
REMARK                            x       y       z     vdW  Elec       q    Type
REMARK                         _______ _______ _______ _____ _____    ______ ____
ROOT
ATOM      1  C   LIG    1       -0.018   1.503   0.010  0.00  0.00    +0.100 C 
ATOM      2  C   LIG    1        0.002  -0.004   0.002  0.00  0.00    -0.130 A 
ATOM      3  C   LIG    1        0.006  -0.686  -1.199  0.00  0.00    +0.060 A 
ATOM      4  C   LIG    1        0.025  -2.071  -1.216  0.00  0.00    -0.140 A 
ATOM      5  C   LIG    1        0.043  -2.771  -0.019  0.00  0.00    +0.220 A 
ATOM      6  N   LIG    1        0.071  -4.169  -0.006  0.00  0.00    -0.750 N 
ATOM      7  H   LIG    1        0.281  -4.651   0.810  0.00  0.00    +0.400 HD
ATOM      8  C   LIG    1       -0.221  -4.897  -1.248  0.00  0.00    +0.260 C 
ATOM      9  C   LIG    1        0.546  -4.211  -2.386  0.00  0.00    +0.010 C 
ATOM     10  C   LIG    1        0.038  -2.082   1.189  0.00  0.00    -0.050 A 
ATOM     11  C   LIG    1        0.022  -2.783  -2.543  0.00  0.00    +0.040 C 
ATOM     12  C   LIG    1        0.916  -2.023  -3.525  0.00  0.00    +0.030 C 
ATOM     13  C   LIG    1        0.023  -0.701   1.198  0.00  0.00    +0.010 A 
ATOM     14 CL   LIG    1        0.018   0.159   2.706  0.00  0.00    -0.070 Cl
ENDROOT
TORSDOF 0
ENDMDL
MODEL      539
REMARK  Name = ZINC000217607582
REMARK                            x       y       z     vdW  Elec       q    Type
REMARK                         _______ _______ _______ _____ _____    ______ ____
ROOT
ATOM      1  C   LIG    1       -0.018   1.503   0.010  0.00  0.00    +0.100 C 
ATOM      2  C   LIG    1        0.002  -0.004   0.002  0.00  0.00    -0.130 A 
ATOM      3  C   LIG    1        0.006  -0.686  -1.199  0.00  0.00    +0.060 A 
ATOM      4  C   LIG    1        0.023  -2.071  -1.216  0.00  0.00    -0.140 A 
ATOM      5  C   LIG    1        0.035  -2.771  -0.019  0.00  0.00    +0.220 A 
ATOM      6  N   LIG    1        0.044  -4.170  -0.006  0.00  0.00    -0.750 N 
ATOM      7  H   LIG    1       -0.144  -4.656   0.812  0.00  0.00    +0.400 HD
ATOM      8  C   LIG    1        0.344  -4.890  -1.251  0.00  0.00    +0.260 C 
ATOM      9  C   LIG    1       -0.452  -4.224  -2.381  0.00  0.00    +0.010 C 
ATOM     10  C   LIG    1        0.034  -2.082   1.189  0.00  0.00    -0.050 A 
ATOM     11  C   LIG    1        0.032  -2.783  -2.543  0.00  0.00    +0.040 C 
ATOM     12  C   LIG    1       -0.892  -2.047  -3.516  0.00  0.00    +0.030 C 
ATOM     13  C   LIG    1        0.023  -0.701   1.198  0.00  0.00    +0.010 A 
ATOM     14 CL   LIG    1        0.021   0.159   2.706  0.00  0.00    -0.070 Cl
ENDROOT
TORSDOF 0
ENDMDL
MODEL      540
REMARK  Name = ZINC000078062244
REMARK                            x       y       z     vdW  Elec       q    Type
REMARK                         _______ _______ _______ _____ _____    ______ ____
ROOT
ATOM      1  C   LIG    1        0.606  -0.499  -1.314  0.00  0.00    -0.020 C 
ATOM      2  C   LIG    1        0.517  -2.026  -1.317  0.00  0.00    +0.040 C 
ENDROOT
BRANCH   1   3
ATOM      3  C   LIG    1        2.052  -0.080  -1.392  0.00  0.00    -0.070 A 
ATOM      4  C   LIG    1        2.650   0.544  -0.313  0.00  0.00    +0.010 A 
ATOM      5  C   LIG    1        3.976   0.928  -0.385  0.00  0.00    +0.000 A 
ATOM      6  C   LIG    1        4.704   0.688  -1.535  0.00  0.00    -0.010 A 
ATOM      7  C   LIG    1        4.106   0.063  -2.613  0.00  0.00    +0.000 A 
ATOM      8  C   LIG    1        2.781  -0.325  -2.540  0.00  0.00    +0.000 A 
ENDBRANCH   1   3
BRANCH   1  10
ATOM      9  C   LIG    1       -0.063   1.573  -0.089  0.00  0.00    +0.010 C 
ATOM     10  C   LIG    1       -0.014   0.046  -0.025  0.00  0.00    +0.010 C 
ENDBRANCH   1  10
BRANCH   1  11
ATOM     11  C   LIG    1       -0.152   0.059  -2.520  0.00  0.00    +0.020 C 
ATOM     12  C   LIG    1       -1.620  -0.366  -2.441  0.00  0.00    +0.010 C 
ENDBRANCH   1  11
TORSDOF 3
ENDMDL
MODEL      541
REMARK  Name = ZINC000005277137
REMARK                            x       y       z     vdW  Elec       q    Type
REMARK                         _______ _______ _______ _____ _____    ______ ____
ROOT
ATOM      1  C   LIG    1       -0.018   1.503   0.010  0.00  0.00    +0.150 C 
ATOM      2  C   LIG    1        0.002  -0.004   0.002  0.00  0.00    +0.060 A 
ATOM      3  C   LIG    1        0.007  -0.775  -1.100  0.00  0.00    -0.050 A 
ATOM      4  C   LIG    1        0.028  -2.126  -0.680  0.00  0.00    -0.100 A 
ATOM      5  C   LIG    1        0.035  -2.119   0.719  0.00  0.00    +0.060 A 
ATOM      6  C   LIG    1        0.055  -3.328   1.427  0.00  0.00    +0.020 A 
ATOM      7  C   LIG    1        0.069  -4.524   0.790  0.00  0.00    +0.030 A 
ATOM      8  C   LIG    1        0.063  -4.599  -0.617  0.00  0.00    -0.070 A 
ATOM      9  C   LIG    1        0.077  -5.837  -1.279  0.00  0.00    +0.030 A 
ATOM     10  C   LIG    1        0.071  -5.875  -2.641  0.00  0.00    -0.010 A 
ATOM     11  C   LIG    1        0.051  -4.702  -3.389  0.00  0.00    +0.010 A 
ATOM     12  C   LIG    1        0.037  -3.482  -2.777  0.00  0.00    +0.010 A 
ATOM     13  C   LIG    1        0.042  -3.408  -1.381  0.00  0.00    +0.000 A 
ATOM     14  N   LIG    1        0.024  -0.800   1.113  0.00  0.00    -0.570 N 
ATOM     15  H   LIG    1        0.026  -0.486   2.031  0.00  0.00    +0.420 HD
ENDROOT
TORSDOF 0
ENDMDL
MODEL      542
REMARK  Name = ZINC000021982740
REMARK                            x       y       z     vdW  Elec       q    Type
REMARK                         _______ _______ _______ _____ _____    ______ ____
ROOT
ATOM      1  C   LIG    1       -0.018   1.503   0.010  0.00  0.00    +0.140 C 
ATOM      2  C   LIG    1        0.002  -0.004   0.002  0.00  0.00    +0.060 A 
ATOM      3  C   LIG    1        0.008  -0.775  -1.100  0.00  0.00    -0.050 A 
ATOM      4  C   LIG    1        0.029  -2.126  -0.680  0.00  0.00    -0.100 A 
ATOM      5  C   LIG    1        0.035  -2.119   0.719  0.00  0.00    +0.060 A 
ATOM      6  C   LIG    1        0.055  -3.328   1.427  0.00  0.00    +0.020 A 
ATOM      7  C   LIG    1        0.068  -4.524   0.790  0.00  0.00    +0.030 A 
ATOM      8  C   LIG    1        0.063  -4.599  -0.617  0.00  0.00    -0.070 A 
ATOM      9  C   LIG    1        0.077  -5.837  -1.279  0.00  0.00    +0.030 A 
ATOM     10  C   LIG    1        0.072  -5.875  -2.641  0.00  0.00    -0.010 A 
ATOM     11  C   LIG    1        0.052  -4.702  -3.389  0.00  0.00    +0.010 A 
ATOM     12  C   LIG    1        0.039  -3.482  -2.777  0.00  0.00    +0.010 A 
ATOM     13  C   LIG    1        0.043  -3.408  -1.381  0.00  0.00    +0.000 A 
ATOM     14  N   LIG    1        0.023  -0.800   1.113  0.00  0.00    -0.460 N 
ATOM     15  C   LIG    1        0.025  -0.326   2.500  0.00  0.00    +0.310 C 
ENDROOT
TORSDOF 0
ENDMDL
MODEL      543
REMARK  Name = ZINC000036942808
REMARK                            x       y       z     vdW  Elec       q    Type
REMARK                         _______ _______ _______ _____ _____    ______ ____
ROOT
ATOM      1  C   LIG    1       -1.414  -2.036   0.129  0.00  0.00    +0.400 C 
ATOM      2  O   LIG    1       -0.445  -2.660  -0.249  0.00  0.00    -0.450 OA
ENDROOT
BRANCH   1   3
ATOM      3  C   LIG    1       -2.570  -2.745   0.699  0.00  0.00    -0.180 A 
ATOM      4  C   LIG    1       -3.691  -2.029   1.130  0.00  0.00    +0.070 A 
ATOM      5  C   LIG    1       -4.770  -2.701   1.664  0.00  0.00    -0.010 A 
ATOM      6  C   LIG    1       -4.746  -4.081   1.774  0.00  0.00    -0.050 A 
ATOM      7  C   LIG    1       -3.640  -4.796   1.350  0.00  0.00    -0.010 A 
ATOM      8  C   LIG    1       -5.930  -4.807   2.358  0.00  0.00    +0.100 C 
ATOM      9  C   LIG    1       -2.555  -4.140   0.808  0.00  0.00    +0.070 A 
ENDBRANCH   1   3
BRANCH   1  10
ATOM     10  C   LIG    1       -1.433  -0.534   0.013  0.00  0.00    -0.030 C 
BRANCH  10  12
ATOM     11  C   LIG    1       -0.019   1.526   0.010  0.00  0.00    +0.020 C 
ATOM     12  C   LIG    1        0.002  -0.004   0.002  0.00  0.00    +0.020 C 
ENDBRANCH  10  12
BRANCH  10  13
ATOM     13  C   LIG    1       -2.135  -0.131  -1.286  0.00  0.00    +0.040 C 
ATOM     14  C   LIG    1       -3.605  -0.552  -1.222  0.00  0.00    +0.010 C 
ENDBRANCH  10  13
ENDBRANCH   1  10
TORSDOF 4
ENDMDL
MODEL      544
REMARK  Name = ZINC000001674857
REMARK                            x       y       z     vdW  Elec       q    Type
REMARK                         _______ _______ _______ _____ _____    ______ ____
ROOT
ATOM      1  C   LIG    1       -0.018   1.503   0.010  0.00  0.00    +0.180 C 
ATOM      2  C   LIG    1        0.002  -0.004   0.002  0.00  0.00    +0.050 A 
ATOM      3  C   LIG    1       -1.086  -0.785   0.003  0.00  0.00    -0.050 A 
ATOM      4  C   LIG    1       -0.598  -2.170  -0.007  0.00  0.00    -0.100 A 
ATOM      5  C   LIG    1       -1.223  -3.414  -0.012  0.00  0.00    +0.070 A 
ATOM      6  C   LIG    1       -0.457  -4.566  -0.022  0.00  0.00    +0.050 A 
ATOM      7  C   LIG    1        0.948  -4.467  -0.028  0.00  0.00    -0.100 A 
ATOM      8  C   LIG    1        1.573  -3.224  -0.024  0.00  0.00    +0.070 A 
ATOM      9  C   LIG    1        1.436  -5.853  -0.038  0.00  0.00    -0.050 A 
ATOM     10  C   LIG    1        0.348  -6.633  -0.037  0.00  0.00    +0.050 A 
ATOM     11  C   LIG    1        0.368  -8.140  -0.045  0.00  0.00    +0.180 C 
ATOM     12  O   LIG    1       -0.766  -5.880  -0.028  0.00  0.00    -0.200 OA
ATOM     13  C   LIG    1        0.807  -2.072  -0.014  0.00  0.00    +0.050 A 
ATOM     14  O   LIG    1        1.116  -0.758  -0.013  0.00  0.00    -0.200 OA
ENDROOT
TORSDOF 0
ENDMDL
MODEL      545
REMARK  Name = ZINC000001845599
REMARK                            x       y       z     vdW  Elec       q    Type
REMARK                         _______ _______ _______ _____ _____    ______ ____
ROOT
ATOM      1  C   LIG    1        0.189   1.495   0.099  0.00  0.00    +0.090 C 
ATOM      2  C   LIG    1        0.098  -0.008   0.044  0.00  0.00    -0.080 A 
ATOM      3  C   LIG    1        0.224  -0.659  -1.181  0.00  0.00    -0.080 A 
ATOM      4  C   LIG    1        0.147  -2.016  -1.265  0.00  0.00    -0.070 A 
ATOM      5  C   LIG    1       -0.062  -2.774  -0.101  0.00  0.00    -0.050 A 
ATOM      6  C   LIG    1       -0.147  -4.176  -0.148  0.00  0.00    +0.020 A 
ATOM      7  C   LIG    1       -0.350  -4.877   1.000  0.00  0.00    +0.000 A 
ATOM      8  C   LIG    1       -0.476  -4.226   2.226  0.00  0.00    +0.000 A 
ATOM      9  C   LIG    1       -0.399  -2.870   2.310  0.00  0.00    +0.020 A 
ATOM     10  C   LIG    1       -0.190  -2.112   1.146  0.00  0.00    -0.050 A 
ATOM     11  C   LIG    1        0.286  -2.701  -2.600  0.00  0.00    +0.090 C 
ATOM     12  C   LIG    1        0.449   0.150  -2.432  0.00  0.00    +0.090 C 
ATOM     13  C   LIG    1       -0.100  -0.710   1.194  0.00  0.00    +0.020 A 
ENDROOT
TORSDOF 0
ENDMDL
MODEL      546
REMARK  Name = ZINC000002529006
REMARK                            x       y       z     vdW  Elec       q    Type
REMARK                         _______ _______ _______ _____ _____    ______ ____
ROOT
ATOM      1  C   LIG    1        0.061  -4.256  -0.021  0.00  0.00    -0.110 A 
ATOM      2  C   LIG    1        0.071  -4.960   1.181  0.00  0.00    +0.060 A 
ATOM      3  C   LIG    1        0.090  -6.338   1.172  0.00  0.00    -0.080 A 
ATOM      4  C   LIG    1        0.100  -7.026  -0.037  0.00  0.00    +0.220 A 
ATOM      5  C   LIG    1        0.089  -6.325  -1.237  0.00  0.00    -0.080 A 
ATOM      6  C   LIG    1        0.064  -4.947  -1.232  0.00  0.00    +0.060 A 
ENDROOT
BRANCH   1  11
ATOM      7  C   LIG    1       -0.018   1.503   0.010  0.00  0.00    +0.080 C 
ATOM      8  C   LIG    1        0.002  -0.004   0.002  0.00  0.00    -0.090 A 
ATOM      9  C   LIG    1        0.006  -0.686  -1.201  0.00  0.00    +0.010 A 
ATOM     10  C   LIG    1        0.024  -2.067  -1.215  0.00  0.00    +0.000 A 
ATOM     11  C   LIG    1        0.040  -2.772  -0.013  0.00  0.00    -0.030 A 
ATOM     12  C   LIG    1        0.037  -2.079   1.196  0.00  0.00    +0.000 A 
ATOM     13  C   LIG    1        0.023  -0.700   1.198  0.00  0.00    -0.080 A 
ATOM     14  C   LIG    1        0.019   0.051   2.505  0.00  0.00    +0.090 C 
ENDBRANCH   1  11
BRANCH   4  15
ATOM     15  N   LIG    1        0.120  -8.421  -0.044  0.00  0.00    -0.880 N 
ATOM     16  H   LIG    1        0.127  -8.902  -0.887  0.00  0.00    +0.400 HD
ATOM     17  H   LIG    1        0.127  -8.911   0.793  0.00  0.00    +0.400 HD
ENDBRANCH   4  15
TORSDOF 2
ENDMDL
MODEL      547
REMARK  Name = ZINC000036156593
REMARK                            x       y       z     vdW  Elec       q    Type
REMARK                         _______ _______ _______ _____ _____    ______ ____
ROOT
ATOM      1  C   LIG    1       -0.549   1.437  -0.241  0.00  0.00    +0.100 C 
ATOM      2  C   LIG    1       -0.251  -0.036  -0.118  0.00  0.00    -0.050 A 
ATOM      3  C   LIG    1        0.012  -0.782  -1.253  0.00  0.00    -0.010 A 
ATOM      4  C   LIG    1        0.285  -2.129  -1.149  0.00  0.00    +0.070 A 
ATOM      5  C   LIG    1        0.296  -2.742   0.108  0.00  0.00    -0.180 A 
ATOM      6  C   LIG    1        0.029  -1.981   1.251  0.00  0.00    -0.020 A 
ATOM      7  C   LIG    1        0.038  -2.631   2.611  0.00  0.00    +0.110 C 
ATOM      8  C   LIG    1       -0.237  -0.633   1.131  0.00  0.00    -0.010 A 
ENDROOT
BRANCH   5   9
ATOM      9  C   LIG    1        0.587  -4.179   0.228  0.00  0.00    +0.390 C 
ATOM     10  O   LIG    1        0.703  -4.685   1.324  0.00  0.00    -0.440 OA
BRANCH   9  11
ATOM     11  C   LIG    1        0.740  -5.023  -1.011  0.00  0.00    +0.040 C 
BRANCH  11  12
ATOM     12  C   LIG    1        1.036  -6.470  -0.610  0.00  0.00    -0.010 C 
ATOM     13  C   LIG    1        1.315  -7.300  -1.864  0.00  0.00    +0.020 C 
ATOM     14  C   LIG    1       -0.170  -7.051   0.129  0.00  0.00    +0.020 C 
ENDBRANCH  11  12
ENDBRANCH   9  11
ENDBRANCH   5   9
TORSDOF 3
ENDMDL
MODEL      548
REMARK  Name = ZINC000032009648
REMARK                            x       y       z     vdW  Elec       q    Type
REMARK                         _______ _______ _______ _____ _____    ______ ____
ROOT
ATOM      1  C   LIG    1       -0.194   1.495   0.018  0.00  0.00    +0.090 C 
ATOM      2  C   LIG    1       -0.081  -0.008   0.006  0.00  0.00    -0.090 A 
ATOM      3  C   LIG    1       -0.210  -0.700  -1.185  0.00  0.00    +0.010 A 
ATOM      4  C   LIG    1       -0.108  -2.079  -1.204  0.00  0.00    +0.010 A 
ATOM      5  C   LIG    1        0.123  -2.772  -0.033  0.00  0.00    -0.080 A 
ATOM      6  C   LIG    1        0.253  -2.080   1.170  0.00  0.00    -0.050 A 
ATOM      7  C   LIG    1        0.234  -4.275  -0.055  0.00  0.00    +0.090 C 
ATOM      8  C   LIG    1        0.156  -0.691   1.182  0.00  0.00    +0.020 A 
ENDROOT
BRANCH   6   9
ATOM      9  C   LIG    1        0.502  -2.821   2.432  0.00  0.00    -0.030 A 
ATOM     10  C   LIG    1        1.597  -3.676   2.536  0.00  0.00    +0.020 A 
ATOM     11  C   LIG    1        1.827  -4.363   3.711  0.00  0.00    +0.030 A 
ATOM     12  C   LIG    1        0.973  -4.205   4.786  0.00  0.00    -0.010 A 
ATOM     13  C   LIG    1       -0.121  -3.356   4.690  0.00  0.00    +0.110 A 
ATOM     14  C   LIG    1       -0.355  -2.658   3.517  0.00  0.00    +0.000 A 
BRANCH  13  15
ATOM     15  O   LIG    1       -0.958  -3.204   5.750  0.00  0.00    -0.500 OA
ATOM     16  H   LIG    1       -0.706  -2.490   6.352  0.00  0.00    +0.390 HD
ENDBRANCH  13  15
ENDBRANCH   6   9
TORSDOF 2
ENDMDL
MODEL      549
REMARK  Name = ZINC000002566823
REMARK                            x       y       z     vdW  Elec       q    Type
REMARK                         _______ _______ _______ _____ _____    ______ ____
ROOT
ATOM      1  C   LIG    1       -0.194   1.495   0.018  0.00  0.00    +0.090 C 
ATOM      2  C   LIG    1       -0.081  -0.008   0.006  0.00  0.00    -0.090 A 
ATOM      3  C   LIG    1       -0.210  -0.700  -1.185  0.00  0.00    +0.000 A 
ATOM      4  C   LIG    1       -0.108  -2.079  -1.204  0.00  0.00    +0.000 A 
ATOM      5  C   LIG    1        0.123  -2.772  -0.033  0.00  0.00    -0.080 A 
ATOM      6  C   LIG    1        0.254  -2.080   1.169  0.00  0.00    -0.050 A 
ATOM      7  C   LIG    1        0.234  -4.275  -0.055  0.00  0.00    +0.090 C 
ATOM      8  C   LIG    1        0.156  -0.691   1.182  0.00  0.00    +0.020 A 
ENDROOT
BRANCH   6   9
ATOM      9  C   LIG    1        0.503  -2.821   2.431  0.00  0.00    -0.040 A 
ATOM     10  C   LIG    1        1.598  -3.675   2.537  0.00  0.00    +0.020 A 
ATOM     11  C   LIG    1        1.825  -4.361   3.712  0.00  0.00    +0.000 A 
ATOM     12  C   LIG    1        0.967  -4.201   4.786  0.00  0.00    +0.000 A 
ATOM     13  C   LIG    1       -0.122  -3.354   4.687  0.00  0.00    +0.000 A 
ATOM     14  C   LIG    1       -0.355  -2.659   3.518  0.00  0.00    +0.010 A 
ENDBRANCH   6   9
TORSDOF 1
ENDMDL
MODEL      550
REMARK  Name = ZINC000071785414
REMARK                            x       y       z     vdW  Elec       q    Type
REMARK                         _______ _______ _______ _____ _____    ______ ____
ROOT
ATOM      1  C   LIG    1       -0.017   1.383   0.010  0.00  0.00    -0.010 A 
ATOM      2  C   LIG    1        1.158   2.112   0.002  0.00  0.00    +0.000 A 
ATOM      3  C   LIG    1        2.382   1.453  -0.063  0.00  0.00    +0.020 A 
ATOM      4  C   LIG    1        2.382   0.097  -0.092  0.00  0.00    -0.080 A 
ATOM      5  C   LIG    1        1.213  -0.651  -0.000  0.00  0.00    -0.080 A 
ATOM      6  C   LIG    1        1.329  -2.157   0.241  0.00  0.00    +0.060 C 
ATOM      7  C   LIG    1        2.329  -2.148   1.467  0.00  0.00    +0.020 C 
ATOM      8  C   LIG    1        3.684  -1.621   0.998  0.00  0.00    +0.010 C 
ATOM      9  C   LIG    1        2.280  -2.812  -0.786  0.00  0.00    -0.040 C 
ATOM     10  C   LIG    1        2.007  -3.047  -2.245  0.00  0.00    +0.030 C 
ATOM     11  C   LIG    1        3.536  -2.683  -2.346  0.00  0.00    +0.050 C 
ATOM     12  C   LIG    1        3.089  -1.622  -1.435  0.00  0.00    -0.060 C 
ATOM     13  C   LIG    1        3.614  -0.797  -0.301  0.00  0.00    +0.080 C 
ATOM     14  C   LIG    1        0.002  -0.004   0.002  0.00  0.00    +0.000 A 
ENDROOT
TORSDOF 0
ENDMDL
MODEL      551
REMARK  Name = ZINC000001589733
REMARK                            x       y       z     vdW  Elec       q    Type
REMARK                         _______ _______ _______ _____ _____    ______ ____
ROOT
ATOM      1  C   LIG    1        0.101   1.544   0.148  0.00  0.00    +0.080 C 
ATOM      2  C   LIG    1        0.046   0.038   0.112  0.00  0.00    -0.080 A 
ATOM      3  C   LIG    1       -0.317  -0.609  -1.053  0.00  0.00    +0.000 A 
ATOM      4  C   LIG    1       -0.367  -1.990  -1.088  0.00  0.00    +0.000 A 
ATOM      5  C   LIG    1       -0.054  -2.720   0.042  0.00  0.00    -0.080 A 
ATOM      6  C   LIG    1        0.311  -2.073   1.211  0.00  0.00    -0.080 A 
ATOM      7  C   LIG    1        0.696  -2.633   2.563  0.00  0.00    +0.040 C 
ATOM      8  C   LIG    1        0.559  -1.448   3.544  0.00  0.00    +0.040 C 
ATOM      9  C   LIG    1        0.786  -0.230   2.623  0.00  0.00    +0.070 C 
ATOM     10  C   LIG    1       -0.108  -4.226   0.003  0.00  0.00    +0.080 C 
ATOM     11  C   LIG    1        0.366  -0.692   1.244  0.00  0.00    -0.090 A 
ENDROOT
BRANCH   7  12
ATOM     12  C   LIG    1       -0.258  -3.762   2.958  0.00  0.00    -0.020 C 
ATOM     13  C   LIG    1       -1.702  -3.313   2.729  0.00  0.00    +0.020 C 
ATOM     14  C   LIG    1       -0.058  -4.105   4.436  0.00  0.00    +0.010 C 
ENDBRANCH   7  12
TORSDOF 1
ENDMDL
MODEL      552
REMARK  Name = ZINC000002046201
REMARK                            x       y       z     vdW  Elec       q    Type
REMARK                         _______ _______ _______ _____ _____    ______ ____
ROOT
ATOM      1  C   LIG    1       -0.607   1.339   0.159  0.00  0.00    +0.080 C 
ATOM      2  C   LIG    1       -0.293  -0.131   0.055  0.00  0.00    -0.080 A 
ATOM      3  C   LIG    1       -0.116  -0.711  -1.186  0.00  0.00    +0.000 A 
ATOM      4  C   LIG    1        0.172  -2.059  -1.282  0.00  0.00    +0.000 A 
ATOM      5  C   LIG    1        0.283  -2.824  -0.138  0.00  0.00    -0.080 A 
ATOM      6  C   LIG    1        0.105  -2.244   1.107  0.00  0.00    -0.090 A 
ATOM      7  C   LIG    1        0.173  -2.853   2.491  0.00  0.00    +0.040 C 
ATOM      8  C   LIG    1       -0.535  -1.836   3.414  0.00  0.00    +0.030 C 
ATOM      9  C   LIG    1       -0.326  -0.506   2.659  0.00  0.00    +0.060 C 
ATOM     10  C   LIG    1        0.597  -4.294  -0.244  0.00  0.00    +0.080 C 
ATOM     11  C   LIG    1       -0.178  -0.895   1.204  0.00  0.00    -0.090 A 
ENDROOT
BRANCH   7  12
ATOM     12  C   LIG    1        1.627  -3.042   2.927  0.00  0.00    -0.010 C 
ATOM     13  C   LIG    1        1.665  -3.698   4.309  0.00  0.00    +0.020 C 
ATOM     14  C   LIG    1        2.322  -1.681   2.990  0.00  0.00    +0.020 C 
ENDBRANCH   7  12
TORSDOF 1
ENDMDL
MODEL      553
REMARK  Name = ZINC000002016110
REMARK                            x       y       z     vdW  Elec       q    Type
REMARK                         _______ _______ _______ _____ _____    ______ ____
ROOT
ATOM      1  C   LIG    1       -0.018   1.502   0.010  0.00  0.00    +0.080 C 
ATOM      2  C   LIG    1        0.002  -0.004   0.002  0.00  0.00    -0.090 A 
ATOM      3  C   LIG    1       -0.026  -0.660  -1.214  0.00  0.00    +0.000 A 
ATOM      4  C   LIG    1       -0.008  -2.038  -1.240  0.00  0.00    +0.000 A 
ATOM      5  C   LIG    1        0.079  -2.756  -0.061  0.00  0.00    -0.090 A 
ATOM      6  C   LIG    1        0.142  -2.104   1.163  0.00  0.00    -0.060 A 
ATOM      7  C   LIG    1        0.354  -2.913   2.412  0.00  0.00    +0.030 C 
ATOM      8  C   LIG    1        1.790  -3.464   2.413  0.00  0.00    +0.030 C 
ATOM      9  C   LIG    1        0.184  -2.111   3.698  0.00  0.00    +0.010 C 
ATOM     10  C   LIG    1       -0.795  -0.959   3.497  0.00  0.00    +0.020 C 
ATOM     11  C   LIG    1       -0.182   0.013   2.483  0.00  0.00    +0.080 C 
ATOM     12  C   LIG    1        0.069  -4.261  -0.157  0.00  0.00    +0.090 C 
ATOM     13  C   LIG    1        0.023  -0.725   1.183  0.00  0.00    -0.070 A 
ENDROOT
TORSDOF 0
ENDMDL
MODEL      554
REMARK  Name = ZINC000019721834
REMARK                            x       y       z     vdW  Elec       q    Type
REMARK                         _______ _______ _______ _____ _____    ______ ____
ROOT
ATOM      1  C   LIG    1        0.006   1.503   0.006  0.00  0.00    +0.110 C 
ATOM      2  C   LIG    1        0.013  -0.004  -0.000  0.00  0.00    -0.070 A 
ATOM      3  C   LIG    1       -0.376  -0.707  -1.154  0.00  0.00    +0.140 A 
ATOM      4  N   LIG    1       -0.756  -0.060  -2.260  0.00  0.00    -0.460 NA
ATOM      5  C   LIG    1       -1.120  -0.710  -3.339  0.00  0.00    +0.310 A 
ATOM      6  C   LIG    1       -1.129  -2.101  -3.389  0.00  0.00    -0.020 A 
ATOM      7  C   LIG    1       -0.751  -2.825  -2.292  0.00  0.00    +0.020 A 
ATOM      8 CL   LIG    1       -0.753  -4.561  -2.325  0.00  0.00    -0.040 Cl
ATOM      9  C   LIG    1       -0.361  -2.123  -1.135  0.00  0.00    -0.090 A 
ATOM     10  C   LIG    1        0.039  -2.798   0.029  0.00  0.00    -0.060 A 
ATOM     11  C   LIG    1        0.409  -2.083   1.128  0.00  0.00    +0.020 A 
ATOM     12  C   LIG    1        0.060  -4.304   0.063  0.00  0.00    +0.100 C 
ATOM     13  C   LIG    1        0.402  -0.690   1.110  0.00  0.00    +0.040 A 
ENDROOT
TORSDOF 0
ENDMDL
MODEL      555
REMARK  Name = ZINC000065731388
REMARK                            x       y       z     vdW  Elec       q    Type
REMARK                         _______ _______ _______ _____ _____    ______ ____
ROOT
ATOM      1  C   LIG    1       -1.412  -0.526   0.013  0.00  0.00    -0.140 C 
ATOM      2  C   LIG    1       -2.114  -0.883  -1.071  0.00  0.00    -0.030 C 
ATOM      3  C   LIG    1       -3.489  -1.245  -0.618  0.00  0.00    +0.010 C 
ATOM      4  C   LIG    1       -4.279  -2.429  -1.218  0.00  0.00    +0.040 C 
ATOM      5  C   LIG    1       -5.673  -2.027  -0.655  0.00  0.00    -0.040 C 
ATOM      6  C   LIG    1       -5.598  -2.164   0.658  0.00  0.00    -0.130 C 
ATOM      7  C   LIG    1       -4.250  -2.750   1.073  0.00  0.00    +0.070 C 
ATOM      8  C   LIG    1       -4.003  -3.647  -0.257  0.00  0.00    +0.030 C 
ATOM      9  C   LIG    1       -3.109  -1.848   0.798  0.00  0.00    -0.060 C 
ATOM     10  C   LIG    1       -2.277  -0.739   1.277  0.00  0.00    +0.090 C 
ENDROOT
BRANCH   1  12
ATOM     11  C   LIG    1       -0.019   1.526   0.010  0.00  0.00    +0.020 C 
ATOM     12  C   LIG    1        0.002  -0.004   0.002  0.00  0.00    +0.070 C 
ENDBRANCH   1  12
BRANCH   6  13
ATOM     13  C   LIG    1       -6.697  -1.790   1.618  0.00  0.00    +0.060 C 
ATOM     14  C   LIG    1       -7.542  -3.027   1.932  0.00  0.00    +0.020 C 
ENDBRANCH   6  13
TORSDOF 2
ENDMDL
MODEL      556
REMARK  Name = ZINC000195817144
REMARK                            x       y       z     vdW  Elec       q    Type
REMARK                         _______ _______ _______ _____ _____    ______ ____
ROOT
ATOM      1  C   LIG    1       -1.521  -0.539   0.004  0.00  0.00    -0.120 C 
ATOM      2  C   LIG    1       -2.350  -0.797  -1.000  0.00  0.00    -0.030 C 
ATOM      3  C   LIG    1       -3.650  -1.246  -0.494  0.00  0.00    -0.020 C 
ATOM      4  C   LIG    1       -3.651  -1.274   0.833  0.00  0.00    -0.020 C 
ATOM      5  C   LIG    1       -2.277  -0.828   1.282  0.00  0.00    -0.220 C 
ENDROOT
BRANCH   5   6
ATOM      6 SI   LIG    1       -1.442  -2.181   2.252  0.00  0.00    +1.050 Si
ATOM      7  C   LIG    1       -2.594  -2.793   3.582  0.00  0.00    -0.240 C 
ATOM      8  C   LIG    1        0.112  -1.516   3.034  0.00  0.00    -0.240 C 
ATOM      9  C   LIG    1       -1.009  -3.588   1.109  0.00  0.00    -0.240 C 
ENDBRANCH   5   6
BRANCH   1  11
ATOM     10  C   LIG    1       -0.064   1.468   0.013  0.00  0.00    +0.030 C 
ATOM     11  C   LIG    1       -0.097  -0.057  -0.108  0.00  0.00    +0.070 C 
ENDBRANCH   1  11
TORSDOF 2
ENDMDL
MODEL      557
REMARK  Name = ZINC000002564068
REMARK                            x       y       z     vdW  Elec       q    Type
REMARK                         _______ _______ _______ _____ _____    ______ ____
ROOT
ATOM      1  C   LIG    1        0.630  -0.622  -1.256  0.00  0.00    -0.050 C 
ATOM      2  C   LIG    1        1.784  -1.229  -1.132  0.00  0.00    -0.120 C 
ENDROOT
BRANCH   1   4
ATOM      3  C   LIG    1       -0.528   0.964   0.260  0.00  0.00    +0.000 C 
ATOM      4  C   LIG    1       -0.295  -0.512  -0.070  0.00  0.00    +0.040 C 
ENDBRANCH   1   4
BRANCH   2   5
ATOM      5  C   LIG    1        2.252  -1.688   0.225  0.00  0.00    +0.050 C 
BRANCH   5   6
ATOM      6  C   LIG    1        1.811  -3.134   0.455  0.00  0.00    +0.000 C 
ATOM      7  C   LIG    1        2.287  -3.600   1.833  0.00  0.00    +0.000 C 
ENDBRANCH   5   6
ENDBRANCH   2   5
BRANCH   2   8
ATOM      8  C   LIG    1        2.643  -1.470  -2.347  0.00  0.00    +0.060 C 
BRANCH   8   9
ATOM      9  C   LIG    1        3.665  -0.340  -2.481  0.00  0.00    +0.000 C 
ATOM     10  C   LIG    1        4.537  -0.584  -3.714  0.00  0.00    +0.000 C 
ENDBRANCH   8   9
ENDBRANCH   2   8
TORSDOF 5
ENDMDL
MODEL      558
REMARK  Name = ZINC000217607775
REMARK                            x       y       z     vdW  Elec       q    Type
REMARK                         _______ _______ _______ _____ _____    ______ ____
ROOT
ATOM      1  C   LIG    1       -0.179   1.596   0.195  0.00  0.00    +0.100 C 
ATOM      2  C   LIG    1       -0.150   0.091   0.126  0.00  0.00    -0.150 A 
ATOM      3  C   LIG    1       -0.208  -0.545  -1.099  0.00  0.00    +0.060 A 
ATOM      4  C   LIG    1       -0.180  -1.926  -1.161  0.00  0.00    -0.030 A 
ATOM      5  C   LIG    1       -0.093  -2.672  -0.000  0.00  0.00    +0.010 A 
ATOM      6  C   LIG    1       -0.034  -2.041   1.233  0.00  0.00    -0.140 A 
ATOM      7  C   LIG    1        0.066  -2.883   2.477  0.00  0.00    +0.040 C 
ATOM      8  C   LIG    1       -0.829  -4.114   2.317  0.00  0.00    +0.020 C 
ATOM      9  C   LIG    1       -0.388  -2.083   3.700  0.00  0.00    +0.020 C 
ATOM     10  C   LIG    1        0.371  -0.750   3.726  0.00  0.00    +0.260 C 
ATOM     11  N   LIG    1       -0.010   0.006   2.526  0.00  0.00    -0.750 N 
ATOM     12  H   LIG    1       -0.223   0.951   2.585  0.00  0.00    +0.400 HD
ATOM     13 CL   LIG    1       -0.059  -4.405  -0.088  0.00  0.00    -0.070 Cl
ATOM     14  C   LIG    1       -0.059  -0.657   1.295  0.00  0.00    +0.230 A 
ENDROOT
TORSDOF 0
ENDMDL
MODEL      559
REMARK  Name = ZINC000248257611
REMARK                            x       y       z     vdW  Elec       q    Type
REMARK                         _______ _______ _______ _____ _____    ______ ____
ROOT
ATOM      1  C   LIG    1       -1.474  -2.169   0.143  0.00  0.00    -0.010 C 
ATOM      2  C   LIG    1       -2.929  -2.634   0.060  0.00  0.00    +0.020 C 
ENDROOT
BRANCH   1   3
ATOM      3  C   LIG    1       -1.400  -0.670  -0.152  0.00  0.00    -0.020 C 
ATOM      4  C   LIG    1       -2.262   0.092   0.857  0.00  0.00    +0.020 C 
BRANCH   3   6
ATOM      5  C   LIG    1       -1.714   1.074  -1.913  0.00  0.00    +0.000 C 
ATOM      6  C   LIG    1       -1.915  -0.403  -1.567  0.00  0.00    +0.000 C 
ENDBRANCH   3   6
ENDBRANCH   1   3
BRANCH   1   7
ATOM      7  C   LIG    1       -0.932  -2.440   1.548  0.00  0.00    -0.020 C 
ATOM      8  C   LIG    1       -0.923  -3.947   1.810  0.00  0.00    +0.020 C 
BRANCH   7   9
ATOM      9  C   LIG    1        0.494  -1.895   1.659  0.00  0.00    +0.010 C 
ATOM     10  C   LIG    1        0.995  -2.063   3.095  0.00  0.00    +0.000 C 
ENDBRANCH   7   9
ENDBRANCH   1   7
TORSDOF 4
ENDMDL
MODEL      560
REMARK  Name = ZINC000001995279
REMARK                            x       y       z     vdW  Elec       q    Type
REMARK                         _______ _______ _______ _____ _____    ______ ____
ROOT
ATOM      1  C   LIG    1       -0.018   1.503   0.010  0.00  0.00    +0.090 C 
ATOM      2  C   LIG    1        0.002  -0.004   0.002  0.00  0.00    -0.090 A 
ATOM      3  C   LIG    1        0.006  -0.688  -1.200  0.00  0.00    +0.020 A 
ATOM      4  C   LIG    1        0.025  -2.069  -1.210  0.00  0.00    -0.010 A 
ATOM      5  C   LIG    1        0.041  -2.770  -0.013  0.00  0.00    +0.100 A 
ATOM      6  C   LIG    1        0.037  -2.082   1.192  0.00  0.00    -0.100 A 
ATOM      7  C   LIG    1        0.023  -0.701   1.196  0.00  0.00    +0.020 A 
ENDROOT
BRANCH   6   8
ATOM      8  C   LIG    1        0.054  -2.841   2.494  0.00  0.00    +0.030 C 
ATOM      9  C   LIG    1        1.302  -2.456   3.291  0.00  0.00    +0.010 C 
ATOM     10  C   LIG    1        1.320  -3.226   4.613  0.00  0.00    +0.000 C 
ATOM     11  C   LIG    1        0.070  -2.878   5.423  0.00  0.00    +0.000 C 
ATOM     12  C   LIG    1       -1.179  -3.262   4.626  0.00  0.00    +0.000 C 
ATOM     13  C   LIG    1       -1.196  -2.492   3.304  0.00  0.00    +0.010 C 
ENDBRANCH   6   8
BRANCH   5  14
ATOM     14  O   LIG    1        0.060  -4.129  -0.021  0.00  0.00    -0.500 OA
ATOM     15  H   LIG    1        0.949  -4.510  -0.027  0.00  0.00    +0.390 HD
ENDBRANCH   5  14
TORSDOF 2
ENDMDL
MODEL      561
REMARK  Name = ZINC000062701915
REMARK                            x       y       z     vdW  Elec       q    Type
REMARK                         _______ _______ _______ _____ _____    ______ ____
ROOT
ATOM      1  C   LIG    1       -0.018   1.503   0.010  0.00  0.00    +0.090 C 
ATOM      2  C   LIG    1        0.002  -0.004   0.002  0.00  0.00    -0.090 A 
ATOM      3  C   LIG    1        0.006  -0.687  -1.202  0.00  0.00    +0.020 A 
ATOM      4  C   LIG    1        0.024  -2.069  -1.221  0.00  0.00    -0.010 A 
ATOM      5  C   LIG    1        0.040  -2.779  -0.032  0.00  0.00    +0.110 A 
ATOM      6  C   LIG    1        0.036  -2.092   1.188  0.00  0.00    -0.070 A 
ATOM      7  C   LIG    1        0.023  -0.698   1.195  0.00  0.00    +0.030 A 
ENDROOT
BRANCH   6   8
ATOM      8  C   LIG    1        0.053  -2.841   2.462  0.00  0.00    -0.080 C 
ATOM      9  C   LIG    1       -1.062  -2.915   3.149  0.00  0.00    -0.030 C 
ATOM     10  C   LIG    1       -1.189  -3.633   4.460  0.00  0.00    +0.050 C 
ATOM     11  C   LIG    1       -0.009  -4.588   4.655  0.00  0.00    +0.020 C 
ATOM     12  C   LIG    1        1.289  -3.819   4.383  0.00  0.00    +0.020 C 
ATOM     13  C   LIG    1        1.343  -3.476   2.891  0.00  0.00    +0.060 C 
ENDBRANCH   6   8
BRANCH   5  14
ATOM     14  O   LIG    1        0.058  -4.138  -0.050  0.00  0.00    -0.490 OA
ATOM     15  H   LIG    1        0.947  -4.518  -0.059  0.00  0.00    +0.390 HD
ENDBRANCH   5  14
TORSDOF 2
ENDMDL
MODEL      562
REMARK  Name = ZINC000049811677
REMARK                            x       y       z     vdW  Elec       q    Type
REMARK                         _______ _______ _______ _____ _____    ______ ____
ROOT
ATOM      1  C   LIG    1       -2.679  -2.791  -0.027  0.00  0.00    -0.170 A 
ATOM      2  C   LIG    1       -3.898  -2.115   0.088  0.00  0.00    +0.080 A 
ATOM      3  C   LIG    1       -5.076  -2.829   0.134  0.00  0.00    +0.010 A 
ATOM      4  C   LIG    1       -5.054  -4.213   0.066  0.00  0.00    +0.000 A 
ATOM      5  C   LIG    1       -3.850  -4.889  -0.048  0.00  0.00    +0.010 A 
ATOM      6 CL   LIG    1       -6.543  -5.104   0.124  0.00  0.00    -0.060 Cl
ATOM      7  C   LIG    1       -2.665  -4.188  -0.100  0.00  0.00    -0.010 A 
ATOM      8  C   LIG    1       -1.356  -4.924  -0.225  0.00  0.00    +0.110 C 
ENDROOT
BRANCH   1   9
ATOM      9  C   LIG    1       -1.418  -2.035  -0.077  0.00  0.00    +0.390 C 
ATOM     10  O   LIG    1       -0.372  -2.614  -0.286  0.00  0.00    -0.440 OA
BRANCH   9  11
ATOM     11  C   LIG    1       -1.425  -0.543   0.131  0.00  0.00    +0.030 C 
BRANCH  11  13
ATOM     12  C   LIG    1       -0.002   1.508   0.242  0.00  0.00    +0.030 C 
ATOM     13  C   LIG    1        0.005  -0.007   0.030  0.00  0.00    +0.020 C 
ENDBRANCH  11  13
ENDBRANCH   9  11
ENDBRANCH   1   9
TORSDOF 3
ENDMDL
MODEL      563
REMARK  Name = ZINC000078676678
REMARK                            x       y       z     vdW  Elec       q    Type
REMARK                         _______ _______ _______ _____ _____    ______ ____
ROOT
ATOM      1  C   LIG    1        1.411  -2.723  -2.361  0.00  0.00    -0.180 A 
ATOM      2  C   LIG    1        1.910  -2.018  -3.461  0.00  0.00    +0.060 A 
ATOM      3  C   LIG    1        2.470  -2.704  -4.518  0.00  0.00    -0.110 A 
ATOM      4  C   LIG    1        2.539  -4.085  -4.493  0.00  0.00    -0.050 A 
ATOM      5  C   LIG    1        2.047  -4.790  -3.408  0.00  0.00    +0.000 A 
ATOM      6  C   LIG    1        3.153  -4.827  -5.652  0.00  0.00    +0.100 C 
ATOM      7  C   LIG    1        3.008  -1.946  -5.705  0.00  0.00    +0.090 C 
ATOM      8  C   LIG    1        1.489  -4.119  -2.340  0.00  0.00    -0.020 A 
ATOM      9  C   LIG    1        0.955  -4.888  -1.160  0.00  0.00    +0.110 C 
ENDROOT
BRANCH   1  10
ATOM     10  C   LIG    1        0.811  -1.999  -1.228  0.00  0.00    +0.390 C 
ATOM     11  O   LIG    1        0.479  -2.602  -0.231  0.00  0.00    -0.450 OA
BRANCH  10  12
ATOM     12  C   LIG    1        0.611  -0.507  -1.309  0.00  0.00    +0.030 C 
BRANCH  12  14
ATOM     13  C   LIG    1       -0.227   1.507  -0.091  0.00  0.00    +0.010 C 
ATOM     14  C   LIG    1       -0.024  -0.007  -0.010  0.00  0.00    +0.020 C 
ENDBRANCH  12  14
ENDBRANCH  10  12
ENDBRANCH   1  10
TORSDOF 3
ENDMDL
MODEL      564
REMARK  Name = ZINC000095729420
REMARK                            x       y       z     vdW  Elec       q    Type
REMARK                         _______ _______ _______ _____ _____    ______ ____
ROOT
ATOM      1  C   LIG    1        1.245  -2.746  -2.451  0.00  0.00    -0.150 A 
ATOM      2  C   LIG    1        1.745  -2.041  -3.550  0.00  0.00    +0.050 A 
ATOM      3  C   LIG    1        2.470  -2.704  -4.518  0.00  0.00    +0.010 A 
ATOM      4  C   LIG    1        2.702  -4.064  -4.404  0.00  0.00    +0.030 A 
ATOM      5  C   LIG    1        2.210  -4.769  -3.320  0.00  0.00    +0.010 A 
ATOM      6  C   LIG    1        1.489  -4.119  -2.340  0.00  0.00    -0.040 A 
ENDROOT
BRANCH   6   7
ATOM      7  C   LIG    1        0.955  -4.888  -1.160  0.00  0.00    +0.000 C 
ATOM      8  C   LIG    1        2.113  -5.571  -0.429  0.00  0.00    +0.030 C 
ATOM      9  C   LIG    1       -0.035  -5.948  -1.647  0.00  0.00    +0.030 C 
ENDBRANCH   6   7
BRANCH   1  10
ATOM     10  C   LIG    1        0.470  -2.046  -1.414  0.00  0.00    +0.400 C 
ATOM     11  O   LIG    1        1.038  -1.347  -0.602  0.00  0.00    -0.440 OA
BRANCH  10  12
ATOM     12  C   LIG    1       -1.028  -2.199  -1.361  0.00  0.00    +0.030 C 
BRANCH  12  14
ATOM     13  C   LIG    1       -3.105  -1.529  -0.144  0.00  0.00    +0.030 C 
ATOM     14  C   LIG    1       -1.583  -1.374  -0.198  0.00  0.00    +0.020 C 
ENDBRANCH  12  14
ENDBRANCH  10  12
ENDBRANCH   1  10
TORSDOF 4
ENDMDL
MODEL      565
REMARK  Name = ZINC000036156617
REMARK                            x       y       z     vdW  Elec       q    Type
REMARK                         _______ _______ _______ _____ _____    ______ ____
ROOT
ATOM      1  C   LIG    1       -2.677  -2.794   0.013  0.00  0.00    -0.180 A 
ATOM      2  C   LIG    1       -3.900  -2.115   0.022  0.00  0.00    +0.060 A 
ATOM      3  C   LIG    1       -5.080  -2.827   0.030  0.00  0.00    +0.000 A 
ATOM      4  C   LIG    1       -5.057  -4.211   0.028  0.00  0.00    -0.050 A 
ATOM      5  C   LIG    1       -3.851  -4.891   0.019  0.00  0.00    +0.000 A 
ATOM      6  C   LIG    1       -2.662  -4.192   0.005  0.00  0.00    +0.070 A 
ENDROOT
BRANCH   1   7
ATOM      7  C   LIG    1       -1.413  -2.041   0.005  0.00  0.00    +0.390 C 
ATOM      8  O   LIG    1       -0.355  -2.632  -0.009  0.00  0.00    -0.450 OA
BRANCH   7   9
ATOM      9  C   LIG    1       -1.433  -0.534   0.013  0.00  0.00    +0.030 C 
BRANCH   9  11
ATOM     10  C   LIG    1       -0.019   1.526   0.010  0.00  0.00    +0.030 C 
ATOM     11  C   LIG    1        0.002  -0.004   0.002  0.00  0.00    +0.020 C 
ENDBRANCH   9  11
ENDBRANCH   7   9
ENDBRANCH   1   7
BRANCH   4  12
ATOM     12  C   LIG    1       -6.352  -4.982   0.036  0.00  0.00    +0.070 C 
BRANCH  12  13
ATOM     13  C   LIG    1       -6.800  -5.242  -1.403  0.00  0.00    +0.000 C 
ATOM     14  C   LIG    1       -8.114  -6.025  -1.395  0.00  0.00    +0.030 C 
ENDBRANCH  12  13
ENDBRANCH   4  12
TORSDOF 5
ENDMDL
MODEL      566
REMARK  Name = ZINC000001696797
REMARK                            x       y       z     vdW  Elec       q    Type
REMARK                         _______ _______ _______ _____ _____    ______ ____
ROOT
ATOM      1  C   LIG    1       -3.003  -2.435  -0.439  0.00  0.00    -0.160 A 
ATOM      2  C   LIG    1       -4.310  -1.987  -0.222  0.00  0.00    -0.050 A 
ATOM      3  C   LIG    1       -5.269  -2.865   0.237  0.00  0.00    +0.000 A 
ATOM      4  C   LIG    1       -4.940  -4.186   0.485  0.00  0.00    -0.060 A 
ATOM      5  C   LIG    1       -3.649  -4.637   0.273  0.00  0.00    +0.000 A 
ATOM      6  C   LIG    1       -5.994  -5.139   0.987  0.00  0.00    +0.090 C 
ATOM      7  C   LIG    1       -4.670  -0.548  -0.491  0.00  0.00    +0.090 C 
ATOM      8  C   LIG    1       -2.681  -3.773  -0.192  0.00  0.00    -0.050 A 
ATOM      9  C   LIG    1       -1.275  -4.266  -0.422  0.00  0.00    +0.110 C 
ENDROOT
BRANCH   1  10
ATOM     10  C   LIG    1       -1.974  -1.504  -0.929  0.00  0.00    +0.410 C 
ATOM     11  O   LIG    1       -1.364  -0.807  -0.146  0.00  0.00    -0.440 OA
BRANCH  10  12
ATOM     12  C   LIG    1       -1.679  -1.416  -2.404  0.00  0.00    +0.030 C 
BRANCH  12  14
ATOM     13  C   LIG    1       -0.371  -0.204  -4.154  0.00  0.00    +0.030 C 
ATOM     14  C   LIG    1       -0.671  -0.293  -2.657  0.00  0.00    +0.020 C 
ENDBRANCH  12  14
ENDBRANCH  10  12
ENDBRANCH   1  10
TORSDOF 3
ENDMDL
MODEL      567
REMARK  Name = ZINC000049811678
REMARK                            x       y       z     vdW  Elec       q    Type
REMARK                         _______ _______ _______ _____ _____    ______ ____
ROOT
ATOM      1  C   LIG    1       -2.677  -2.794   0.013  0.00  0.00    -0.170 A 
ATOM      2  C   LIG    1       -3.900  -2.115   0.022  0.00  0.00    +0.080 A 
ATOM      3  C   LIG    1       -5.080  -2.827   0.030  0.00  0.00    +0.020 A 
ATOM      4  C   LIG    1       -5.059  -4.210   0.028  0.00  0.00    -0.040 A 
ATOM      5  C   LIG    1       -3.852  -4.891   0.018  0.00  0.00    -0.050 A 
ATOM      6 CL   LIG    1       -3.837  -6.627   0.016  0.00  0.00    -0.060 Cl
ATOM      7  C   LIG    1       -6.354  -4.980   0.037  0.00  0.00    +0.110 C 
ATOM      8  C   LIG    1       -2.662  -4.192   0.005  0.00  0.00    +0.090 A 
ENDROOT
BRANCH   1   9
ATOM      9  C   LIG    1       -1.413  -2.041   0.005  0.00  0.00    +0.400 C 
ATOM     10  O   LIG    1       -0.355  -2.632  -0.009  0.00  0.00    -0.450 OA
BRANCH   9  11
ATOM     11  C   LIG    1       -1.433  -0.534   0.013  0.00  0.00    +0.030 C 
BRANCH  11  13
ATOM     12  C   LIG    1       -0.019   1.526   0.010  0.00  0.00    +0.030 C 
ATOM     13  C   LIG    1        0.002  -0.004   0.002  0.00  0.00    +0.020 C 
ENDBRANCH  11  13
ENDBRANCH   9  11
ENDBRANCH   1   9
TORSDOF 3
ENDMDL
MODEL      568
REMARK  Name = ZINC000031893209
REMARK                            x       y       z     vdW  Elec       q    Type
REMARK                         _______ _______ _______ _____ _____    ______ ____
ROOT
ATOM      1  C   LIG    1       -2.677  -2.793   0.013  0.00  0.00    -0.160 A 
ATOM      2  C   LIG    1       -3.899  -2.114   0.022  0.00  0.00    +0.070 A 
ATOM      3  C   LIG    1       -5.079  -2.826   0.029  0.00  0.00    +0.020 A 
ATOM      4  C   LIG    1       -5.057  -4.211   0.027  0.00  0.00    -0.010 A 
ATOM      5  C   LIG    1       -3.849  -4.891   0.017  0.00  0.00    -0.090 A 
ATOM      6  C   LIG    1       -3.835  -6.398   0.014  0.00  0.00    +0.110 C 
ATOM      7 CL   LIG    1       -6.548  -5.099   0.035  0.00  0.00    -0.060 Cl
ATOM      8  C   LIG    1       -2.661  -4.192   0.005  0.00  0.00    +0.090 A 
ENDROOT
BRANCH   1   9
ATOM      9  C   LIG    1       -1.413  -2.041   0.005  0.00  0.00    +0.400 C 
ATOM     10  O   LIG    1       -0.355  -2.632  -0.009  0.00  0.00    -0.450 OA
BRANCH   9  11
ATOM     11  C   LIG    1       -1.433  -0.534   0.013  0.00  0.00    +0.030 C 
BRANCH  11  13
ATOM     12  C   LIG    1       -0.019   1.526   0.010  0.00  0.00    +0.030 C 
ATOM     13  C   LIG    1        0.002  -0.004   0.002  0.00  0.00    +0.020 C 
ENDBRANCH  11  13
ENDBRANCH   9  11
ENDBRANCH   1   9
TORSDOF 3
ENDMDL
MODEL      569
REMARK  Name = ZINC000002507469
REMARK                            x       y       z     vdW  Elec       q    Type
REMARK                         _______ _______ _______ _____ _____    ______ ____
ROOT
ATOM      1  C   LIG    1       -1.413  -2.063   0.004  0.00  0.00    +0.030 C 
ATOM      2 CL   LIG    1       -0.671  -2.663   1.535  0.00  0.00    -0.180 Cl
ENDROOT
BRANCH   1   3
ATOM      3  C   LIG    1       -0.590  -2.556  -1.188  0.00  0.00    +0.030 C 
ATOM      4  C   LIG    1       -1.219  -2.047  -2.486  0.00  0.00    +0.020 C 
ENDBRANCH   1   3
BRANCH   1   5
ATOM      5  C   LIG    1       -2.844  -2.592  -0.110  0.00  0.00    +0.030 C 
ATOM      6  C   LIG    1       -2.823  -4.122  -0.119  0.00  0.00    +0.020 C 
ENDBRANCH   1   5
BRANCH   1   7
ATOM      7  C   LIG    1       -1.433  -0.534   0.013  0.00  0.00    +0.030 C 
BRANCH   7   9
ATOM      8  C   LIG    1       -0.019   1.526   0.010  0.00  0.00    +0.010 C 
ATOM      9  C   LIG    1        0.002  -0.004   0.002  0.00  0.00    +0.010 C 
ENDBRANCH   7   9
ENDBRANCH   1   7
TORSDOF 4
ENDMDL
MODEL      570
REMARK  Name = ZINC000001587674
REMARK                            x       y       z     vdW  Elec       q    Type
REMARK                         _______ _______ _______ _____ _____    ______ ____
ROOT
ATOM      1  C   LIG    1        1.213  -1.883  -0.847  0.00  0.00    +0.140 C 
ENDROOT
BRANCH   1   2
ATOM      2  O   LIG    1        2.186  -2.268   0.126  0.00  0.00    -0.550 OA
ATOM      3  H   LIG    1        3.091  -2.018  -0.103  0.00  0.00    +0.370 HD
ENDBRANCH   1   2
BRANCH   1   4
ATOM      4  C   LIG    1        1.232  -0.362  -1.012  0.00  0.00    -0.020 C 
BRANCH   4   6
ATOM      5  C   LIG    1        1.048   1.818   0.195  0.00  0.00    +0.000 C 
ATOM      6  C   LIG    1        0.901   0.301   0.327  0.00  0.00    +0.010 C 
ENDBRANCH   4   6
ENDBRANCH   1   4
BRANCH   1   7
ATOM      7  C   LIG    1        1.540  -2.545  -2.187  0.00  0.00    -0.010 C 
BRANCH   7   8
ATOM      8  C   LIG    1        1.449  -4.065  -2.040  0.00  0.00    -0.060 C 
ATOM      9  C   LIG    1        1.952  -4.475  -0.654  0.00  0.00    +0.030 C 
ATOM     10  C   LIG    1        2.309  -4.734  -3.113  0.00  0.00    +0.010 C 
ATOM     11  C   LIG    1       -0.007  -4.507  -2.204  0.00  0.00    +0.010 C 
ENDBRANCH   7   8
ENDBRANCH   1   7
BRANCH   1  12
ATOM     12  C   LIG    1       -0.176  -2.328  -0.384  0.00  0.00    +0.040 C 
BRANCH  12  13
ATOM     13  C   LIG    1       -1.213  -1.949  -1.443  0.00  0.00    -0.000 C 
ATOM     14  C   LIG    1       -2.609  -2.339  -0.952  0.00  0.00    +0.010 C 
ENDBRANCH  12  13
ENDBRANCH   1  12
TORSDOF 7
ENDMDL
MODEL      571
REMARK  Name = ZINC000053765751
REMARK                            x       y       z     vdW  Elec       q    Type
REMARK                         _______ _______ _______ _____ _____    ______ ____
ROOT
ATOM      1  C   LIG    1       -3.076  -4.036   0.010  0.00  0.00    -0.150 A 
ATOM      2  C   LIG    1       -2.003  -4.933   0.001  0.00  0.00    +0.060 A 
ATOM      3  C   LIG    1       -2.243  -6.291  -0.004  0.00  0.00    +0.030 A 
ATOM      4  C   LIG    1       -3.542  -6.768   0.001  0.00  0.00    -0.090 A 
ATOM      5  C   LIG    1       -4.612  -5.886   0.010  0.00  0.00    +0.090 A 
ATOM      6  F   LIG    1       -5.877  -6.360   0.014  0.00  0.00    -0.130 F 
ATOM      7  C   LIG    1       -3.795  -8.253  -0.004  0.00  0.00    +0.110 C 
ATOM      8  C   LIG    1       -4.386  -4.523   0.020  0.00  0.00    +0.060 A 
ENDROOT
BRANCH   1   9
ATOM      9  C   LIG    1       -2.826  -2.585   0.015  0.00  0.00    +0.400 C 
ATOM     10  O   LIG    1       -3.759  -1.810   0.028  0.00  0.00    -0.440 OA
BRANCH   9  11
ATOM     11  C   LIG    1       -1.413  -2.063   0.004  0.00  0.00    +0.030 C 
BRANCH  11  12
ATOM     12  C   LIG    1       -1.433  -0.534   0.013  0.00  0.00    +0.030 C 
BRANCH  12  14
ATOM     13  C   LIG    1       -0.019   1.526   0.010  0.00  0.00    +0.010 C 
ATOM     14  C   LIG    1        0.002  -0.004   0.002  0.00  0.00    +0.000 C 
ENDBRANCH  12  14
ENDBRANCH  11  12
ENDBRANCH   9  11
ENDBRANCH   1   9
TORSDOF 4
ENDMDL
MODEL      572
REMARK  Name = ZINC000036156585
REMARK                            x       y       z     vdW  Elec       q    Type
REMARK                         _______ _______ _______ _____ _____    ______ ____
ROOT
ATOM      1  C   LIG    1        1.681  -3.986   2.655  0.00  0.00    -0.170 A 
ATOM      2  C   LIG    1        1.070  -4.901   1.791  0.00  0.00    +0.060 A 
ATOM      3  C   LIG    1        1.189  -6.254   2.030  0.00  0.00    -0.110 A 
ATOM      4  C   LIG    1        1.910  -6.707   3.121  0.00  0.00    +0.050 A 
ATOM      5  C   LIG    1        2.517  -5.808   3.980  0.00  0.00    +0.000 A 
ATOM      6  C   LIG    1        0.532  -7.242   1.100  0.00  0.00    +0.090 C 
ATOM      7  C   LIG    1        2.412  -4.453   3.752  0.00  0.00    -0.030 A 
ATOM      8  C   LIG    1        3.075  -3.475   4.689  0.00  0.00    +0.110 C 
ENDROOT
BRANCH   1   9
ATOM      9  C   LIG    1        1.559  -2.541   2.408  0.00  0.00    +0.390 C 
ATOM     10  O   LIG    1        2.177  -1.754   3.093  0.00  0.00    -0.450 OA
BRANCH   9  11
ATOM     11  C   LIG    1        0.666  -2.038   1.303  0.00  0.00    +0.030 C 
BRANCH  11  12
ATOM     12  C   LIG    1        0.719  -0.510   1.259  0.00  0.00    +0.030 C 
BRANCH  12  14
ATOM     13  C   LIG    1       -0.134   1.529   0.094  0.00  0.00    +0.000 C 
ATOM     14  C   LIG    1       -0.187   0.001   0.137  0.00  0.00    -0.010 C 
ENDBRANCH  12  14
ENDBRANCH  11  12
ENDBRANCH   9  11
ENDBRANCH   1   9
TORSDOF 4
ENDMDL
MODEL      573
REMARK  Name = ZINC000086315023
REMARK                            x       y       z     vdW  Elec       q    Type
REMARK                         _______ _______ _______ _____ _____    ______ ____
ROOT
ATOM      1  C   LIG    1       -3.072  -4.035   0.050  0.00  0.00    -0.190 A 
ATOM      2  C   LIG    1       -2.004  -4.931  -0.071  0.00  0.00    +0.100 A 
ATOM      3  C   LIG    1       -2.248  -6.286  -0.115  0.00  0.00    -0.040 A 
ATOM      4  C   LIG    1       -3.548  -6.763  -0.040  0.00  0.00    +0.140 A 
ATOM      5  C   LIG    1       -4.611  -5.880   0.080  0.00  0.00    -0.030 A 
ATOM      6  F   LIG    1       -3.780  -8.093  -0.083  0.00  0.00    -0.130 F 
ATOM      7  C   LIG    1       -4.381  -4.523   0.131  0.00  0.00    +0.010 A 
ATOM      8  C   LIG    1       -5.537  -3.566   0.261  0.00  0.00    +0.110 C 
ENDROOT
BRANCH   1   9
ATOM      9  C   LIG    1       -2.819  -2.588   0.097  0.00  0.00    +0.400 C 
ATOM     10  O   LIG    1       -3.733  -1.819   0.311  0.00  0.00    -0.440 OA
BRANCH   9  11
ATOM     11  C   LIG    1       -1.425  -2.059  -0.120  0.00  0.00    +0.030 C 
BRANCH  11  12
ATOM     12  C   LIG    1       -1.437  -0.532  -0.019  0.00  0.00    +0.030 C 
BRANCH  12  14
ATOM     13  C   LIG    1       -0.034   1.532  -0.139  0.00  0.00    +0.000 C 
ATOM     14  C   LIG    1       -0.022   0.005  -0.239  0.00  0.00    -0.010 C 
ENDBRANCH  12  14
ENDBRANCH  11  12
ENDBRANCH   9  11
ENDBRANCH   1   9
TORSDOF 4
ENDMDL
MODEL      574
REMARK  Name = ZINC000036156937
REMARK                            x       y       z     vdW  Elec       q    Type
REMARK                         _______ _______ _______ _____ _____    ______ ____
ROOT
ATOM      1  C   LIG    1       -3.075  -4.034   0.010  0.00  0.00    -0.180 A 
ATOM      2  C   LIG    1       -2.002  -4.931   0.001  0.00  0.00    +0.090 A 
ATOM      3  C   LIG    1       -2.242  -6.288  -0.005  0.00  0.00    -0.020 A 
ATOM      4  C   LIG    1       -3.545  -6.765  -0.001  0.00  0.00    +0.130 A 
ATOM      5  C   LIG    1       -4.614  -5.880   0.009  0.00  0.00    -0.130 A 
ATOM      6  C   LIG    1       -6.025  -6.407   0.014  0.00  0.00    +0.110 C 
ATOM      7  F   LIG    1       -3.773  -8.096  -0.005  0.00  0.00    -0.130 F 
ATOM      8  C   LIG    1       -4.387  -4.522   0.020  0.00  0.00    +0.110 A 
ENDROOT
BRANCH   1   9
ATOM      9  C   LIG    1       -2.826  -2.585   0.015  0.00  0.00    +0.400 C 
ATOM     10  O   LIG    1       -3.759  -1.810   0.028  0.00  0.00    -0.450 OA
BRANCH   9  11
ATOM     11  C   LIG    1       -1.413  -2.063   0.004  0.00  0.00    +0.030 C 
BRANCH  11  12
ATOM     12  C   LIG    1       -1.433  -0.534   0.013  0.00  0.00    +0.030 C 
BRANCH  12  14
ATOM     13  C   LIG    1       -0.019   1.526   0.010  0.00  0.00    +0.010 C 
ATOM     14  C   LIG    1        0.002  -0.004   0.002  0.00  0.00    -0.010 C 
ENDBRANCH  12  14
ENDBRANCH  11  12
ENDBRANCH   9  11
ENDBRANCH   1   9
TORSDOF 4
ENDMDL
MODEL      575
REMARK  Name = ZINC000053780436
REMARK                            x       y       z     vdW  Elec       q    Type
REMARK                         _______ _______ _______ _____ _____    ______ ____
ROOT
ATOM      1  C   LIG    1        1.560  -3.958  -2.764  0.00  0.00    -0.150 A 
ATOM      2  C   LIG    1        1.145  -4.880  -1.798  0.00  0.00    +0.050 A 
ATOM      3  C   LIG    1        1.327  -6.232  -2.016  0.00  0.00    +0.080 A 
ATOM      4  C   LIG    1        1.918  -6.674  -3.189  0.00  0.00    +0.020 A 
ATOM      5  C   LIG    1        2.331  -5.766  -4.149  0.00  0.00    +0.030 A 
ATOM      6  F   LIG    1        0.927  -7.125  -1.085  0.00  0.00    -0.140 F 
ATOM      7  C   LIG    1        2.151  -4.414  -3.947  0.00  0.00    -0.030 A 
ATOM      8  C   LIG    1        2.602  -3.428  -4.994  0.00  0.00    +0.110 C 
ENDROOT
BRANCH   1   9
ATOM      9  C   LIG    1        1.370  -2.516  -2.540  0.00  0.00    +0.400 C 
ATOM     10  O   LIG    1        1.630  -1.726  -3.422  0.00  0.00    -0.440 OA
BRANCH   9  11
ATOM     11  C   LIG    1        0.853  -2.022  -1.214  0.00  0.00    +0.030 C 
BRANCH  11  12
ATOM     12  C   LIG    1        0.749  -0.495  -1.244  0.00  0.00    +0.030 C 
BRANCH  12  14
ATOM     13  C   LIG    1        0.119   1.533   0.072  0.00  0.00    +0.010 C 
ATOM     14  C   LIG    1        0.223   0.007   0.102  0.00  0.00    -0.010 C 
ENDBRANCH  12  14
ENDBRANCH  11  12
ENDBRANCH   9  11
ENDBRANCH   1   9
TORSDOF 4
ENDMDL
MODEL      576
REMARK  Name = ZINC000036156591
REMARK                            x       y       z     vdW  Elec       q    Type
REMARK                         _______ _______ _______ _____ _____    ______ ____
ROOT
ATOM      1  C   LIG    1        1.681  -3.986   2.655  0.00  0.00    -0.180 A 
ATOM      2  C   LIG    1        1.070  -4.901   1.791  0.00  0.00    +0.070 A 
ATOM      3  C   LIG    1        1.189  -6.254   2.030  0.00  0.00    -0.010 A 
ATOM      4  C   LIG    1        1.909  -6.707   3.121  0.00  0.00    -0.050 A 
ATOM      5  C   LIG    1        2.516  -5.808   3.981  0.00  0.00    -0.010 A 
ATOM      6  C   LIG    1        2.034  -8.188   3.375  0.00  0.00    +0.100 C 
ATOM      7  C   LIG    1        2.412  -4.453   3.752  0.00  0.00    -0.020 A 
ATOM      8  C   LIG    1        3.075  -3.475   4.689  0.00  0.00    +0.110 C 
ENDROOT
BRANCH   1   9
ATOM      9  C   LIG    1        1.559  -2.541   2.407  0.00  0.00    +0.390 C 
ATOM     10  O   LIG    1        2.177  -1.754   3.092  0.00  0.00    -0.450 OA
BRANCH   9  11
ATOM     11  C   LIG    1        0.666  -2.038   1.302  0.00  0.00    +0.030 C 
BRANCH  11  12
ATOM     12  C   LIG    1        0.720  -0.510   1.259  0.00  0.00    +0.030 C 
BRANCH  12  14
ATOM     13  C   LIG    1       -0.133   1.529   0.094  0.00  0.00    +0.000 C 
ATOM     14  C   LIG    1       -0.187   0.001   0.137  0.00  0.00    -0.010 C 
ENDBRANCH  12  14
ENDBRANCH  11  12
ENDBRANCH   9  11
ENDBRANCH   1   9
TORSDOF 4
ENDMDL
MODEL      577
REMARK  Name = ZINC000001676409
REMARK                            x       y       z     vdW  Elec       q    Type
REMARK                         _______ _______ _______ _____ _____    ______ ____
ROOT
ATOM      1  C   LIG    1        1.523  -2.584  -2.693  0.00  0.00    +0.130 C 
ENDROOT
BRANCH   1   2
ATOM      2  O   LIG    1        1.081  -1.913  -3.874  0.00  0.00    -0.560 OA
ATOM      3  H   LIG    1        0.172  -2.122  -4.129  0.00  0.00    +0.370 HD
ENDBRANCH   1   2
BRANCH   1   4
ATOM      4  C   LIG    1        0.624  -2.194  -1.518  0.00  0.00    -0.010 C 
BRANCH   4   5
ATOM      5  C   LIG    1       -0.812  -2.638  -1.805  0.00  0.00    -0.010 C 
BRANCH   5   7
ATOM      6  C   LIG    1       -3.160  -2.625  -0.952  0.00  0.00    +0.000 C 
ATOM      7  C   LIG    1       -1.724  -2.181  -0.665  0.00  0.00    +0.000 C 
ENDBRANCH   5   7
ENDBRANCH   4   5
ENDBRANCH   1   4
BRANCH   1   8
ATOM      8  C   LIG    1        1.452  -4.097  -2.909  0.00  0.00    -0.010 C 
BRANCH   8   9
ATOM      9  C   LIG    1        2.444  -4.503  -4.000  0.00  0.00    +0.010 C 
ATOM     10  C   LIG    1        2.373  -6.016  -4.217  0.00  0.00    +0.000 C 
ENDBRANCH   8   9
ENDBRANCH   1   8
BRANCH   1  11
ATOM     11  C   LIG    1        2.966  -2.179  -2.386  0.00  0.00    +0.030 C 
BRANCH  11  12
ATOM     12  C   LIG    1        3.040  -0.665  -2.182  0.00  0.00    +0.010 C 
ATOM     13  C   LIG    1        4.498  -0.246  -1.989  0.00  0.00    +0.000 C 
ENDBRANCH  11  12
ENDBRANCH   1  11
TORSDOF 8
ENDMDL
MODEL      578
REMARK  Name = ZINC000039256125
REMARK                            x       y       z     vdW  Elec       q    Type
REMARK                         _______ _______ _______ _____ _____    ______ ____
ROOT
ATOM      1  C   LIG    1       -0.018   1.503   0.010  0.00  0.00    +0.100 C 
ATOM      2  C   LIG    1        0.002  -0.004   0.002  0.00  0.00    -0.060 A 
ATOM      3  C   LIG    1        0.006  -0.683  -1.214  0.00  0.00    +0.020 A 
ATOM      4  C   LIG    1        0.024  -2.044  -1.255  0.00  0.00    +0.050 A 
ATOM      5  C   LIG    1        0.040  -2.773  -0.056  0.00  0.00    -0.110 A 
ATOM      6  C   LIG    1        0.060  -4.182  -0.054  0.00  0.00    +0.030 A 
ATOM      7  C   LIG    1        0.075  -4.825   1.152  0.00  0.00    -0.020 A 
ATOM      8  C   LIG    1        0.071  -4.087   2.333  0.00  0.00    +0.170 A 
ATOM      9  N   LIG    1        0.052  -2.776   2.327  0.00  0.00    -0.470 NA
ATOM     10  C   LIG    1        0.088  -4.815   3.652  0.00  0.00    +0.140 C 
ATOM     11 CL   LIG    1        0.065  -5.077  -1.542  0.00  0.00    -0.040 Cl
ATOM     12  C   LIG    1        0.037  -2.085   1.182  0.00  0.00    +0.150 A 
ATOM     13  C   LIG    1        0.022  -0.680   1.183  0.00  0.00    +0.040 A 
ENDROOT
TORSDOF 0
ENDMDL
MODEL      579
REMARK  Name = ZINC000002384629
REMARK                            x       y       z     vdW  Elec       q    Type
REMARK                         _______ _______ _______ _____ _____    ______ ____
ROOT
ATOM      1  C   LIG    1        1.476  -4.028  -2.532  0.00  0.00    -0.050 C 
ATOM      2  C   LIG    1        0.995  -4.684  -3.559  0.00  0.00    -0.050 C 
ENDROOT
BRANCH   1   3
ATOM      3  C   LIG    1        1.455  -2.521  -2.524  0.00  0.00    +0.040 C 
BRANCH   3   4
ATOM      4  C   LIG    1        0.739  -2.027  -1.265  0.00  0.00    +0.010 C 
BRANCH   4   5
ATOM      5  C   LIG    1        0.718  -0.497  -1.257  0.00  0.00    +0.000 C 
BRANCH   5   7
ATOM      6  C   LIG    1       -0.019   1.526   0.010  0.00  0.00    +0.000 C 
ATOM      7  C   LIG    1        0.002  -0.004   0.002  0.00  0.00    -0.010 C 
ENDBRANCH   5   7
ENDBRANCH   4   5
ENDBRANCH   3   4
ENDBRANCH   1   3
BRANCH   2   8
ATOM      8  C   LIG    1        1.016  -6.190  -3.568  0.00  0.00    +0.080 C 
BRANCH   8   9
ATOM      9  C   LIG    1       -0.400  -6.718  -3.808  0.00  0.00    -0.050 C 
ATOM     10  C   LIG    1       -0.376  -8.256  -3.929  0.00  0.00    +0.040 C 
ATOM     11  C   LIG    1       -1.679  -8.702  -3.218  0.00  0.00    +0.030 C 
ATOM     12  C   LIG    1       -1.773  -7.699  -2.041  0.00  0.00    +0.000 C 
ATOM     13  C   LIG    1       -1.284  -6.384  -2.624  0.00  0.00    +0.370 C 
ATOM     14  O   LIG    1       -1.551  -5.279  -2.219  0.00  0.00    -0.430 OA
ENDBRANCH   8   9
ENDBRANCH   2   8
TORSDOF 6
ENDMDL
MODEL      580
REMARK  Name = ZINC000002528341
REMARK                            x       y       z     vdW  Elec       q    Type
REMARK                         _______ _______ _______ _____ _____    ______ ____
ROOT
ATOM      1  C   LIG    1        1.483  -2.518  -2.546  0.00  0.00    +0.050 C 
ENDROOT
BRANCH   1   2
ATOM      2  C   LIG    1        1.482  -4.025  -2.538  0.00  0.00    -0.140 C 
ATOM      3  C   LIG    1        0.548  -4.683  -3.179  0.00  0.00    -0.140 C 
ATOM      4  C   LIG    1        0.497  -6.187  -3.101  0.00  0.00    +0.060 C 
ATOM      5  C   LIG    1       -0.475  -3.936  -3.996  0.00  0.00    +0.070 C 
ATOM      6  C   LIG    1        2.556  -4.775  -1.793  0.00  0.00    +0.070 C 
ENDBRANCH   1   2
BRANCH   1   7
ATOM      7  C   LIG    1        0.770  -2.001  -1.295  0.00  0.00    +0.010 C 
BRANCH   7   8
ATOM      8  C   LIG    1        0.771  -0.471  -1.302  0.00  0.00    +0.000 C 
BRANCH   8  10
ATOM      9  C   LIG    1        0.058   1.576  -0.059  0.00  0.00    +0.000 C 
ATOM     10  C   LIG    1        0.058   0.046  -0.051  0.00  0.00    -0.010 C 
ENDBRANCH   8  10
ENDBRANCH   7   8
ENDBRANCH   1   7
TORSDOF 4
ENDMDL
MODEL      581
REMARK  Name = ZINC000001589738
REMARK                            x       y       z     vdW  Elec       q    Type
REMARK                         _______ _______ _______ _____ _____    ______ ____
ROOT
ATOM      1  C   LIG    1       -0.018   1.503   0.010  0.00  0.00    +0.090 C 
ATOM      2  C   LIG    1        0.002  -0.004   0.002  0.00  0.00    -0.090 A 
ATOM      3  C   LIG    1        0.006  -0.689  -1.198  0.00  0.00    +0.000 A 
ATOM      4  C   LIG    1        0.025  -2.071  -1.204  0.00  0.00    +0.010 A 
ATOM      5  C   LIG    1        0.041  -2.772  -0.010  0.00  0.00    -0.100 A 
ATOM      6  C   LIG    1        0.063  -4.262   0.252  0.00  0.00    +0.070 C 
ATOM      7  C   LIG    1       -0.367  -4.420   1.726  0.00  0.00    +0.000 C 
ATOM      8  C   LIG    1        0.057  -3.070   2.341  0.00  0.00    +0.080 C 
ATOM      9  C   LIG    1        0.037  -2.086   1.191  0.00  0.00    -0.090 A 
ATOM     10  C   LIG    1        0.023  -0.702   1.194  0.00  0.00    -0.070 A 
ATOM     11  C   LIG    1        0.026   0.046   2.502  0.00  0.00    +0.080 C 
ENDROOT
BRANCH   7  12
ATOM     12  C   LIG    1        0.376  -5.582   2.388  0.00  0.00    -0.020 C 
ATOM     13  C   LIG    1        0.034  -6.885   1.664  0.00  0.00    +0.030 C 
ATOM     14  C   LIG    1       -0.047  -5.688   3.855  0.00  0.00    +0.030 C 
ENDBRANCH   7  12
TORSDOF 1
ENDMDL
MODEL      582
REMARK  Name = ZINC000005951312
REMARK                            x       y       z     vdW  Elec       q    Type
REMARK                         _______ _______ _______ _____ _____    ______ ____
ROOT
ATOM      1  C   LIG    1        2.181  -4.537  -3.772  0.00  0.00    -0.120 A 
ATOM      2  C   LIG    1        1.462  -4.765  -4.931  0.00  0.00    +0.050 A 
ATOM      3  C   LIG    1        2.106  -5.210  -6.069  0.00  0.00    -0.020 A 
ATOM      4  C   LIG    1        3.476  -5.428  -6.048  0.00  0.00    +0.120 A 
ATOM      5  C   LIG    1        4.196  -5.198  -4.885  0.00  0.00    -0.080 A 
ATOM      6  C   LIG    1        3.547  -4.748  -3.751  0.00  0.00    +0.040 A 
ENDROOT
BRANCH   4   7
ATOM      7  O   LIG    1        4.112  -5.866  -7.167  0.00  0.00    -0.320 OA
ATOM      8  C   LIG    1        5.524  -6.069  -7.073  0.00  0.00    +0.250 C 
ENDBRANCH   4   7
BRANCH   1   9
ATOM      9  C   LIG    1        1.476  -4.051  -2.532  0.00  0.00    +0.060 C 
BRANCH   9  10
ATOM     10  C   LIG    1        1.455  -2.521  -2.524  0.00  0.00    +0.010 C 
BRANCH  10  11
ATOM     11  C   LIG    1        0.739  -2.027  -1.265  0.00  0.00    +0.000 C 
BRANCH  11  12
ATOM     12  C   LIG    1        0.718  -0.497  -1.257  0.00  0.00    +0.000 C 
BRANCH  12  14
ATOM     13  C   LIG    1       -0.019   1.526   0.010  0.00  0.00    +0.000 C 
ATOM     14  C   LIG    1        0.002  -0.004   0.002  0.00  0.00    -0.010 C 
ENDBRANCH  12  14
ENDBRANCH  11  12
ENDBRANCH  10  11
ENDBRANCH   9  10
ENDBRANCH   1   9
TORSDOF 6
ENDMDL
MODEL      583
REMARK  Name = ZINC000228974567
REMARK                            x       y       z     vdW  Elec       q    Type
REMARK                         _______ _______ _______ _____ _____    ______ ____
ROOT
ATOM      1  C   LIG    1       -2.827  -4.123   0.007  0.00  0.00    +0.040 C 
ENDROOT
BRANCH   1   2
ATOM      2  C   LIG    1       -4.263  -4.652   0.018  0.00  0.00    +0.170 C 
ATOM      3  C   LIG    1       -4.245  -6.176  -0.116  0.00  0.00    +0.050 C 
BRANCH   2   4
ATOM      4  O   LIG    1       -4.905  -4.284   1.267  0.00  0.00    -0.290 OA
BRANCH   4   5
ATOM      5  C   LIG    1       -6.236  -4.092   1.235  0.00  0.00    +0.220 C 
ATOM      6  S   LIG    1       -7.037  -4.272  -0.136  0.00  0.00    -0.400 S 
ATOM      7  C   LIG    1       -6.971  -3.708   2.493  0.00  0.00    +0.180 C 
ENDBRANCH   4   5
ENDBRANCH   2   4
ENDBRANCH   1   2
BRANCH   1   8
ATOM      8  C   LIG    1       -2.848  -2.593   0.015  0.00  0.00    +0.000 C 
BRANCH   8   9
ATOM      9  C   LIG    1       -1.413  -2.063   0.004  0.00  0.00    +0.000 C 
BRANCH   9  10
ATOM     10  C   LIG    1       -1.433  -0.534   0.013  0.00  0.00    +0.000 C 
BRANCH  10  12
ATOM     11  C   LIG    1       -0.019   1.526   0.010  0.00  0.00    +0.000 C 
ATOM     12  C   LIG    1        0.002  -0.004   0.002  0.00  0.00    -0.010 C 
ENDBRANCH  10  12
ENDBRANCH   9  10
ENDBRANCH   8   9
ENDBRANCH   1   8
TORSDOF 7
ENDMDL
MODEL      584
REMARK  Name = ZINC000001671806
REMARK                            x       y       z     vdW  Elec       q    Type
REMARK                         _______ _______ _______ _____ _____    ______ ____
ROOT
ATOM      1  S   LIG    1        2.401  -4.678   3.934  0.00  0.00    -0.080 S 
ENDROOT
BRANCH   1   2
ATOM      2  C   LIG    1        2.324  -6.429   3.753  0.00  0.00    +0.120 A 
ATOM      3  C   LIG    1        2.901  -7.248   4.719  0.00  0.00    -0.010 A 
ATOM      4  C   LIG    1        2.833  -8.621   4.564  0.00  0.00    +0.080 A 
ATOM      5  C   LIG    1        2.188  -9.131   3.445  0.00  0.00    -0.040 A 
ATOM      6  C   LIG    1        1.637  -8.260   2.526  0.00  0.00    +0.270 A 
ATOM      7  N   LIG    1        1.712  -6.955   2.702  0.00  0.00    -0.490 NA
ENDBRANCH   1   2
BRANCH   1   8
ATOM      8  C   LIG    1        1.524  -4.077   2.464  0.00  0.00    +0.090 C 
BRANCH   8   9
ATOM      9  C   LIG    1        1.503  -2.548   2.473  0.00  0.00    +0.030 C 
BRANCH   9  10
ATOM     10  C   LIG    1        0.763  -2.041   1.233  0.00  0.00    +0.030 C 
BRANCH  10  11
ATOM     11  C   LIG    1        0.742  -0.511   1.242  0.00  0.00    +0.000 C 
BRANCH  11  13
ATOM     12  C   LIG    1       -0.019   1.526   0.010  0.00  0.00    +0.000 C 
ATOM     13  C   LIG    1        0.002  -0.004   0.002  0.00  0.00    -0.010 C 
ENDBRANCH  11  13
ENDBRANCH  10  11
ENDBRANCH   9  10
ENDBRANCH   8   9
ENDBRANCH   1   8
TORSDOF 6
ENDMDL
MODEL      585
REMARK  Name = ZINC000002029798
REMARK                            x       y       z     vdW  Elec       q    Type
REMARK                         _______ _______ _______ _____ _____    ______ ____
ROOT
ATOM      1  C   LIG    1       -4.263  -4.652   0.018  0.00  0.00    +0.200 C 
ENDROOT
BRANCH   1   2
ATOM      2  O   LIG    1       -4.895  -4.290   1.247  0.00  0.00    -0.560 OA
ATOM      3  H   LIG    1       -4.455  -4.640   2.034  0.00  0.00    +0.370 HD
ENDBRANCH   1   2
BRANCH   1   4
ATOM      4  C   LIG    1       -2.827  -4.123   0.007  0.00  0.00    -0.020 C 
BRANCH   4   5
ATOM      5  C   LIG    1       -2.848  -2.593   0.015  0.00  0.00    +0.010 C 
BRANCH   5   6
ATOM      6  C   LIG    1       -1.413  -2.063   0.004  0.00  0.00    +0.000 C 
BRANCH   6   7
ATOM      7  C   LIG    1       -1.433  -0.534   0.013  0.00  0.00    +0.000 C 
BRANCH   7   9
ATOM      8  C   LIG    1       -0.019   1.526   0.010  0.00  0.00    +0.000 C 
ATOM      9  C   LIG    1        0.002  -0.004   0.002  0.00  0.00    -0.010 C 
ENDBRANCH   7   9
ENDBRANCH   6   7
ENDBRANCH   5   6
ENDBRANCH   4   5
ENDBRANCH   1   4
BRANCH   1  10
ATOM     10  C   LIG    1       -4.245  -6.176  -0.116  0.00  0.00    -0.020 C 
BRANCH  10  11
ATOM     11  C   LIG    1       -5.680  -6.695  -0.231  0.00  0.00    +0.010 C 
BRANCH  11  12
ATOM     12  C   LIG    1       -5.662  -8.219  -0.365  0.00  0.00    +0.000 C 
BRANCH  12  13
ATOM     13  C   LIG    1       -7.097  -8.738  -0.479  0.00  0.00    -0.010 C 
ATOM     14  C   LIG    1       -7.079 -10.262  -0.614  0.00  0.00    +0.000 C 
ENDBRANCH  12  13
ENDBRANCH  11  12
ENDBRANCH  10  11
ENDBRANCH   1  10
TORSDOF 10
ENDMDL
MODEL      586
REMARK  Name = ZINC000004522653
REMARK                            x       y       z     vdW  Elec       q    Type
REMARK                         _______ _______ _______ _____ _____    ______ ____
ROOT
ATOM      1  C   LIG    1        0.340  -2.781   2.407  0.00  0.00    +0.020 C 
ATOM      2  C   LIG    1        0.200  -2.151   3.584  0.00  0.00    +0.060 C 
ENDROOT
BRANCH   1   8
ATOM      3  C   LIG    1        2.308   0.930  -0.040  0.00  0.00    +0.130 C 
ATOM      4  C   LIG    1        1.358  -0.240  -0.009  0.00  0.00    +0.130 A 
ATOM      5  C   LIG    1        0.610  -0.540  -1.133  0.00  0.00    -0.050 A 
ATOM      6  C   LIG    1       -0.264  -1.618  -1.102  0.00  0.00    +0.060 A 
ATOM      7  C   LIG    1       -0.358  -2.361   0.061  0.00  0.00    -0.040 A 
ATOM      8  C   LIG    1        0.427  -2.002   1.160  0.00  0.00    +0.170 A 
ATOM      9  N   LIG    1        1.256  -0.964   1.086  0.00  0.00    -0.460 NA
ENDBRANCH   1   8
BRANCH   2  10
ATOM     10  C   LIG    1       -0.031  -0.696   3.618  0.00  0.00    -0.050 A 
ATOM     11  C   LIG    1       -0.732  -0.072   2.583  0.00  0.00    +0.020 A 
ATOM     12  C   LIG    1       -0.945   1.290   2.622  0.00  0.00    +0.000 A 
ATOM     13  C   LIG    1       -0.466   2.039   3.683  0.00  0.00    +0.000 A 
ATOM     14  C   LIG    1        0.229   1.427   4.712  0.00  0.00    +0.000 A 
ATOM     15  C   LIG    1        0.445   0.066   4.689  0.00  0.00    +0.020 A 
ENDBRANCH   2  10
TORSDOF 2
ENDMDL
MODEL      587
REMARK  Name = ZINC000036420367
REMARK                            x       y       z     vdW  Elec       q    Type
REMARK                         _______ _______ _______ _____ _____    ______ ____
ROOT
ATOM      1  C   LIG    1       -4.241  -4.644   0.018  0.00  0.00    -0.020 A 
ATOM      2  C   LIG    1       -4.993  -4.811  -1.118  0.00  0.00    -0.330 A 
ATOM      3  S   LIG    1       -6.574  -5.437  -0.672  0.00  0.00    +0.250 S 
ATOM      4  C   LIG    1       -6.157  -5.444   0.982  0.00  0.00    -0.060 A 
ATOM      5  C   LIG    1       -4.904  -5.006   1.163  0.00  0.00    -0.020 A 
ENDROOT
BRANCH   2   6
ATOM      6  C   LIG    1       -4.565  -4.526  -2.433  0.00  0.00    +0.520 C 
ATOM      7  O   LIG    1       -5.316  -4.711  -3.370  0.00  0.00    -0.470 OA
ENDBRANCH   2   6
BRANCH   1   8
ATOM      8  C   LIG    1       -2.827  -4.123   0.007  0.00  0.00    +0.090 C 
BRANCH   8   9
ATOM      9  C   LIG    1       -2.848  -2.593   0.015  0.00  0.00    +0.020 C 
BRANCH   9  10
ATOM     10  C   LIG    1       -1.413  -2.063   0.004  0.00  0.00    +0.000 C 
BRANCH  10  11
ATOM     11  C   LIG    1       -1.433  -0.534   0.013  0.00  0.00    +0.000 C 
BRANCH  11  13
ATOM     12  C   LIG    1       -0.019   1.526   0.010  0.00  0.00    +0.000 C 
ATOM     13  C   LIG    1        0.002  -0.004   0.002  0.00  0.00    -0.010 C 
ENDBRANCH  11  13
ENDBRANCH  10  11
ENDBRANCH   9  10
ENDBRANCH   8   9
ENDBRANCH   1   8
TORSDOF 6
ENDMDL
MODEL      588
REMARK  Name = ZINC000001586327
REMARK                            x       y       z     vdW  Elec       q    Type
REMARK                         _______ _______ _______ _____ _____    ______ ____
ROOT
ATOM      1  N   LIG    1        1.475  -3.986  -2.532  0.00  0.00    -0.750 N 
ATOM      2  H   LIG    1        1.069  -4.480  -1.803  0.00  0.00    +0.400 HD
ENDROOT
BRANCH   1   3
ATOM      3  C   LIG    1        2.079  -4.670  -3.589  0.00  0.00    +0.210 A 
ATOM      4  C   LIG    1        2.667  -3.963  -4.631  0.00  0.00    -0.070 A 
ATOM      5  C   LIG    1        3.264  -4.643  -5.674  0.00  0.00    +0.050 A 
ATOM      6  C   LIG    1        3.276  -6.026  -5.683  0.00  0.00    -0.150 A 
ATOM      7  C   LIG    1        2.692  -6.733  -4.648  0.00  0.00    +0.050 A 
ATOM      8  C   LIG    1        3.929  -6.764  -6.823  0.00  0.00    +0.070 C 
ATOM      9  C   LIG    1        2.099  -6.059  -3.598  0.00  0.00    -0.070 A 
ENDBRANCH   1   3
BRANCH   1  10
ATOM     10  C   LIG    1        1.455  -2.521  -2.524  0.00  0.00    +0.240 C 
BRANCH  10  11
ATOM     11  C   LIG    1        0.739  -2.027  -1.265  0.00  0.00    +0.010 C 
BRANCH  11  12
ATOM     12  C   LIG    1        0.718  -0.497  -1.257  0.00  0.00    +0.020 C 
BRANCH  12  14
ATOM     13  C   LIG    1       -0.019   1.526   0.010  0.00  0.00    +0.000 C 
ATOM     14  C   LIG    1        0.002  -0.004   0.002  0.00  0.00    +0.000 C 
ENDBRANCH  12  14
ENDBRANCH  11  12
ENDBRANCH  10  11
ENDBRANCH   1  10
TORSDOF 5
ENDMDL
MODEL      589
REMARK  Name = ZINC000575629351
REMARK                            x       y       z     vdW  Elec       q    Type
REMARK                         _______ _______ _______ _____ _____    ______ ____
ROOT
ATOM      1  C   LIG    1       -1.412  -0.526   0.013  0.00  0.00    -0.090 A 
ATOM      2  C   LIG    1       -2.112  -0.668  -1.181  0.00  0.00    +0.100 A 
ATOM      3  N   LIG    1       -1.798  -0.424  -2.499  0.00  0.00    -0.590 N 
ATOM      4  H   LIG    1       -0.948  -0.079  -2.815  0.00  0.00    +0.420 HD
ATOM      5  C   LIG    1       -2.864  -0.739  -3.297  0.00  0.00    +0.290 A 
ATOM      6  C   LIG    1       -3.882  -1.188  -2.545  0.00  0.00    -0.260 A 
ATOM      7  C   LIG    1       -3.431  -1.157  -1.152  0.00  0.00    -0.080 A 
ATOM      8  C   LIG    1       -4.022  -1.493   0.067  0.00  0.00    +0.050 A 
ATOM      9  C   LIG    1       -3.316  -1.346   1.228  0.00  0.00    -0.010 A 
ATOM     10  C   LIG    1       -2.013  -0.869   1.204  0.00  0.00    +0.030 A 
ENDROOT
BRANCH   6  11
ATOM     11  C   LIG    1       -5.232  -1.637  -3.041  0.00  0.00    +0.470 C 
ATOM     12  F   LIG    1       -5.743  -2.615  -2.181  0.00  0.00    -0.200 F 
ATOM     13  F   LIG    1       -5.103  -2.169  -4.328  0.00  0.00    -0.200 F 
ENDBRANCH   6  11
BRANCH   1  15
ATOM     14  C   LIG    1       -0.019   1.526   0.010  0.00  0.00    +0.020 C 
ATOM     15  C   LIG    1        0.002  -0.004   0.002  0.00  0.00    +0.060 C 
ENDBRANCH   1  15
TORSDOF 2
ENDMDL
MODEL      590
REMARK  Name = ZINC000575629350
REMARK                            x       y       z     vdW  Elec       q    Type
REMARK                         _______ _______ _______ _____ _____    ______ ____
ROOT
ATOM      1  C   LIG    1       -0.018   1.503   0.010  0.00  0.00    +0.140 C 
ATOM      2  C   LIG    1        0.002  -0.004   0.002  0.00  0.00    +0.080 A 
ATOM      3  C   LIG    1        0.007  -0.768  -1.101  0.00  0.00    -0.170 A 
ATOM      4  C   LIG    1        0.029  -2.164  -0.656  0.00  0.00    -0.100 A 
ATOM      5  C   LIG    1        0.043  -3.393  -1.316  0.00  0.00    +0.080 A 
ATOM      6  C   LIG    1        0.062  -4.552  -0.592  0.00  0.00    -0.020 A 
ATOM      7  C   LIG    1        0.067  -4.517   0.795  0.00  0.00    +0.070 A 
ATOM      8  C   LIG    1        0.054  -3.314   1.467  0.00  0.00    -0.180 A 
ATOM      9  C   LIG    1        0.035  -2.122   0.751  0.00  0.00    +0.130 A 
ATOM     10  C   LIG    1       -0.006  -0.283  -2.528  0.00  0.00    +0.100 C 
ATOM     11  N   LIG    1        0.024  -0.795   1.118  0.00  0.00    -0.590 N 
ATOM     12  H   LIG    1        0.029  -0.470   2.032  0.00  0.00    +0.420 HD
ENDROOT
BRANCH   8  13
ATOM     13  C   LIG    1        0.061  -3.291   2.974  0.00  0.00    +0.440 C 
ATOM     14  F   LIG    1        0.707  -2.132   3.419  0.00  0.00    -0.210 F 
ATOM     15  F   LIG    1        0.738  -4.416   3.455  0.00  0.00    -0.200 F 
ENDBRANCH   8  13
TORSDOF 1
ENDMDL
MODEL      591
REMARK  Name = ZINC000001716858
REMARK                            x       y       z     vdW  Elec       q    Type
REMARK                         _______ _______ _______ _____ _____    ______ ____
ROOT
ATOM      1  C   LIG    1       -2.742  -3.784  -0.205  0.00  0.00    +0.000 C 
ENDROOT
BRANCH   1   2
ATOM      2  C   LIG    1       -2.337  -4.178   1.217  0.00  0.00    +0.000 C 
ATOM      3  C   LIG    1       -2.342  -5.702   1.345  0.00  0.00    +0.000 C 
ENDBRANCH   1   2
BRANCH   1   4
ATOM      4  C   LIG    1       -2.592  -2.272  -0.378  0.00  0.00    +0.010 C 
BRANCH   4   5
ATOM      5  C   LIG    1       -1.115  -1.889  -0.257  0.00  0.00    +0.000 C 
BRANCH   5   6
ATOM      6  C   LIG    1       -0.964  -0.377  -0.430  0.00  0.00    +0.000 C 
BRANCH   6   8
ATOM      7  C   LIG    1        0.663   1.519  -0.483  0.00  0.00    +0.000 C 
ATOM      8  C   LIG    1        0.512   0.006  -0.310  0.00  0.00    -0.010 C 
ENDBRANCH   6   8
ENDBRANCH   5   6
ENDBRANCH   4   5
ENDBRANCH   1   4
BRANCH   1   9
ATOM      9  C   LIG    1       -4.199  -4.183  -0.449  0.00  0.00    +0.000 C 
BRANCH   9  10
ATOM     10  C   LIG    1       -4.568  -3.899  -1.906  0.00  0.00    +0.010 C 
ATOM     11  C   LIG    1       -3.757  -4.814  -2.826  0.00  0.00    +0.010 C 
ENDBRANCH   9  10
BRANCH   9  12
ATOM     12  C   LIG    1       -5.111  -3.374   0.475  0.00  0.00    +0.180 C 
BRANCH  12  13
ATOM     13  O   LIG    1       -6.467  -3.781   0.282  0.00  0.00    -0.570 OA
ATOM     14  H   LIG    1       -7.103  -3.308   0.837  0.00  0.00    +0.380 HD
ENDBRANCH  12  13
ENDBRANCH   9  12
ENDBRANCH   1   9
TORSDOF 9
ENDMDL
MODEL      592
REMARK  Name = ZINC000033947724
REMARK                            x       y       z     vdW  Elec       q    Type
REMARK                         _______ _______ _______ _____ _____    ______ ____
ROOT
ATOM      1  C   LIG    1       -0.018   1.503   0.010  0.00  0.00    +0.090 C 
ATOM      2  C   LIG    1        0.002  -0.004   0.002  0.00  0.00    -0.160 A 
ATOM      3  C   LIG    1        0.006  -0.687  -1.197  0.00  0.00    +0.040 A 
ATOM      4  C   LIG    1        0.025  -2.070  -1.203  0.00  0.00    -0.050 A 
ATOM      5  C   LIG    1        0.042  -2.769  -0.012  0.00  0.00    +0.040 A 
ATOM      6  C   LIG    1        0.039  -2.091   1.196  0.00  0.00    -0.150 A 
ATOM      7  C   LIG    1        0.063  -2.884   2.476  0.00  0.00    +0.040 C 
ATOM      8  C   LIG    1       -0.834  -4.114   2.314  0.00  0.00    +0.030 C 
ATOM      9  C   LIG    1       -0.452  -2.033   3.640  0.00  0.00    +0.030 C 
ATOM     10  C   LIG    1        0.318  -0.706   3.656  0.00  0.00    +0.170 C 
ATOM     11  C   LIG    1       -0.125   0.136   4.854  0.00  0.00    +0.040 C 
ATOM     12  C   LIG    1        1.821  -0.979   3.741  0.00  0.00    +0.020 C 
ATOM     13  N   LIG    1        0.011   0.006   2.408  0.00  0.00    -0.740 N 
ATOM     14  H   LIG    1       -0.196   0.954   2.418  0.00  0.00    +0.400 HD
ATOM     15  C   LIG    1        0.023  -0.706   1.203  0.00  0.00    +0.220 A 
ENDROOT
TORSDOF 0
ENDMDL
MODEL      593
REMARK  Name = ZINC000071256566
REMARK                            x       y       z     vdW  Elec       q    Type
REMARK                         _______ _______ _______ _____ _____    ______ ____
ROOT
ATOM      1  C   LIG    1       -0.018   1.503   0.010  0.00  0.00    +0.100 C 
ATOM      2  C   LIG    1        0.002  -0.004   0.002  0.00  0.00    -0.070 A 
ATOM      3  C   LIG    1        0.006  -0.704  -1.216  0.00  0.00    -0.050 A 
ATOM      4  C   LIG    1       -0.009  -0.025  -2.447  0.00  0.00    +0.050 A 
ATOM      5  C   LIG    1       -0.004  -0.735  -3.608  0.00  0.00    +0.020 A 
ATOM      6  C   LIG    1        0.015  -2.130  -3.596  0.00  0.00    -0.030 A 
ATOM      7  C   LIG    1        0.029  -2.821  -2.423  0.00  0.00    +0.040 A 
ATOM      8 CL   LIG    1        0.020  -2.997  -5.100  0.00  0.00    -0.070 Cl
ATOM      9  C   LIG    1        0.026  -2.121  -1.204  0.00  0.00    -0.040 A 
ATOM     10  C   LIG    1        0.041  -2.799   0.026  0.00  0.00    +0.020 A 
ATOM     11  C   LIG    1        0.037  -2.088   1.187  0.00  0.00    +0.020 A 
ATOM     12  C   LIG    1        0.023  -0.695   1.175  0.00  0.00    +0.010 A 
ENDROOT
TORSDOF 0
ENDMDL
MODEL      594
REMARK  Name = ZINC000071256798
REMARK                            x       y       z     vdW  Elec       q    Type
REMARK                         _______ _______ _______ _____ _____    ______ ____
ROOT
ATOM      1  C   LIG    1       -0.018   1.503   0.010  0.00  0.00    +0.090 C 
ATOM      2  C   LIG    1        0.002  -0.004   0.002  0.00  0.00    -0.060 A 
ATOM      3  C   LIG    1       -0.100  -0.705  -1.211  0.00  0.00    -0.050 A 
ATOM      4  C   LIG    1       -0.222  -0.028  -2.438  0.00  0.00    -0.020 A 
ATOM      5  C   LIG    1       -0.318  -0.741  -3.594  0.00  0.00    +0.030 A 
ATOM      6  C   LIG    1       -0.298  -2.135  -3.581  0.00  0.00    +0.020 A 
ATOM      7  C   LIG    1       -0.182  -2.823  -2.413  0.00  0.00    +0.030 A 
ATOM      8 CL   LIG    1       -0.249   1.708  -2.478  0.00  0.00    -0.050 Cl
ATOM      9  C   LIG    1       -0.079  -2.122  -1.199  0.00  0.00    -0.040 A 
ATOM     10  C   LIG    1        0.043  -2.799   0.026  0.00  0.00    +0.010 A 
ATOM     11  C   LIG    1        0.141  -2.086   1.182  0.00  0.00    +0.030 A 
ATOM     12  C   LIG    1        0.125  -0.693   1.170  0.00  0.00    +0.010 A 
ENDROOT
TORSDOF 0
ENDMDL
MODEL      595
REMARK  Name = ZINC000071256893
REMARK                            x       y       z     vdW  Elec       q    Type
REMARK                         _______ _______ _______ _____ _____    ______ ____
ROOT
ATOM      1  C   LIG    1       -0.018   1.503   0.010  0.00  0.00    +0.100 C 
ATOM      2  C   LIG    1        0.002  -0.004   0.002  0.00  0.00    -0.070 A 
ATOM      3  C   LIG    1        0.006  -0.704  -1.217  0.00  0.00    -0.040 A 
ATOM      4  C   LIG    1       -0.009  -0.025  -2.447  0.00  0.00    +0.040 A 
ATOM      5  C   LIG    1       -0.004  -0.737  -3.609  0.00  0.00    -0.030 A 
ATOM      6  C   LIG    1        0.015  -2.131  -3.596  0.00  0.00    +0.030 A 
ATOM      7  C   LIG    1        0.030  -2.821  -2.423  0.00  0.00    +0.050 A 
ATOM      8 CL   LIG    1       -0.023   0.104  -5.127  0.00  0.00    -0.070 Cl
ATOM      9  C   LIG    1        0.026  -2.121  -1.204  0.00  0.00    -0.050 A 
ATOM     10  C   LIG    1        0.041  -2.799   0.026  0.00  0.00    +0.020 A 
ATOM     11  C   LIG    1        0.036  -2.088   1.187  0.00  0.00    +0.020 A 
ATOM     12  C   LIG    1        0.023  -0.695   1.175  0.00  0.00    +0.010 A 
ENDROOT
TORSDOF 0
ENDMDL
MODEL      596
REMARK  Name = ZINC000004299221
REMARK                            x       y       z     vdW  Elec       q    Type
REMARK                         _______ _______ _______ _____ _____    ______ ____
ROOT
ATOM      1  C   LIG    1       -0.018   1.503   0.010  0.00  0.00    +0.090 C 
ATOM      2  C   LIG    1        0.002  -0.004   0.002  0.00  0.00    -0.070 A 
ATOM      3  C   LIG    1        0.006  -0.689  -1.196  0.00  0.00    +0.000 A 
ATOM      4  C   LIG    1        0.025  -2.072  -1.205  0.00  0.00    +0.010 A 
ATOM      5  C   LIG    1        0.040  -2.776  -0.015  0.00  0.00    +0.000 A 
ATOM      6  C   LIG    1        0.036  -2.102   1.189  0.00  0.00    +0.020 A 
ATOM      7  C   LIG    1        0.023  -0.709   1.204  0.00  0.00    -0.030 A 
ENDROOT
BRANCH   7   8
ATOM      8  C   LIG    1        0.019   0.022   2.496  0.00  0.00    -0.060 A 
ATOM      9  C   LIG    1        0.873   1.026   2.768  0.00  0.00    -0.030 A 
ATOM     10  S   LIG    1        0.563   1.639   4.386  0.00  0.00    +0.110 S 
ATOM     11  C   LIG    1       -0.737   0.478   4.616  0.00  0.00    -0.040 A 
ATOM     12  C   LIG    1       -0.874  -0.271   3.525  0.00  0.00    +0.020 A 
ENDBRANCH   7   8
TORSDOF 1
ENDMDL
MODEL      597
REMARK  Name = ZINC000261300763
REMARK                            x       y       z     vdW  Elec       q    Type
REMARK                         _______ _______ _______ _____ _____    ______ ____
ROOT
ATOM      1  C   LIG    1        0.718  -0.497  -1.257  0.00  0.00    -0.020 C 
ATOM      2  C   LIG    1        2.187  -0.073  -1.207  0.00  0.00    +0.030 C 
ATOM      3  C   LIG    1        2.904  -0.566  -2.466  0.00  0.00    +0.040 C 
ATOM      4  C   LIG    1        2.816  -2.092  -2.538  0.00  0.00    -0.020 C 
ATOM      5  C   LIG    1        1.347  -2.517  -2.587  0.00  0.00    +0.040 C 
ATOM      6  C   LIG    1        0.630  -2.023  -1.329  0.00  0.00    +0.030 C 
ENDROOT
BRANCH   4   7
ATOM      7  C   LIG    1        3.532  -2.586  -3.797  0.00  0.00    +0.450 C 
ATOM      8  F   LIG    1        2.924  -2.030  -4.927  0.00  0.00    -0.180 F 
ATOM      9  F   LIG    1        3.451  -3.981  -3.862  0.00  0.00    -0.180 F 
ATOM     10  F   LIG    1        4.875  -2.197  -3.751  0.00  0.00    -0.180 F 
ENDBRANCH   4   7
BRANCH   1  12
ATOM     11  C   LIG    1       -0.019   1.526   0.010  0.00  0.00    +0.000 C 
ATOM     12  C   LIG    1        0.002  -0.004   0.002  0.00  0.00    +0.000 C 
ENDBRANCH   1  12
TORSDOF 2
ENDMDL
MODEL      598
REMARK  Name = ZINC000095740047
REMARK                            x       y       z     vdW  Elec       q    Type
REMARK                         _______ _______ _______ _____ _____    ______ ____
ROOT
ATOM      1  C   LIG    1        1.563  -3.862   2.537  0.00  0.00    +0.150 A 
ATOM      2  C   LIG    1        1.022  -4.709   1.585  0.00  0.00    -0.060 A 
ATOM      3  C   LIG    1        1.134  -6.080   1.734  0.00  0.00    +0.050 A 
ATOM      4  C   LIG    1        1.784  -6.608   2.833  0.00  0.00    -0.010 A 
ATOM      5  C   LIG    1        2.328  -5.770   3.789  0.00  0.00    +0.030 A 
ATOM      6  C   LIG    1        2.224  -4.394   3.643  0.00  0.00    -0.120 A 
ENDROOT
BRANCH   6   7
ATOM      7  S   LIG    1        2.915  -3.322   4.859  0.00  0.00    -0.090 S 
ATOM      8  C   LIG    1        3.629  -4.476   6.062  0.00  0.00    +0.120 C 
ENDBRANCH   6   7
BRANCH   1   9
ATOM      9  O   LIG    1        1.454  -2.514   2.391  0.00  0.00    -0.310 OA
BRANCH   9  10
ATOM     10  C   LIG    1        0.763  -2.041   1.233  0.00  0.00    +0.180 C 
BRANCH  10  11
ATOM     11  C   LIG    1        0.742  -0.511   1.242  0.00  0.00    +0.030 C 
BRANCH  11  13
ATOM     12  C   LIG    1       -0.019   1.526   0.010  0.00  0.00    +0.030 C 
ATOM     13  C   LIG    1        0.002  -0.004   0.002  0.00  0.00    +0.000 C 
ENDBRANCH  11  13
ENDBRANCH  10  11
ENDBRANCH   9  10
ENDBRANCH   1   9
TORSDOF 5
ENDMDL
MODEL      599
REMARK  Name = ZINC000001675690
REMARK                            x       y       z     vdW  Elec       q    Type
REMARK                         _______ _______ _______ _____ _____    ______ ____
ROOT
ATOM      1  C   LIG    1        1.514  -4.365  -2.594  0.00  0.00    -0.080 A 
ATOM      2  C   LIG    1        0.891  -4.936  -1.492  0.00  0.00    -0.020 A 
ATOM      3  C   LIG    1        0.835  -6.310  -1.367  0.00  0.00    +0.030 A 
ATOM      4  C   LIG    1        1.398  -7.118  -2.338  0.00  0.00    +0.000 A 
ATOM      5  C   LIG    1        2.020  -6.553  -3.437  0.00  0.00    +0.030 A 
ATOM      6  C   LIG    1        2.074  -5.180  -3.571  0.00  0.00    +0.030 A 
ENDROOT
BRANCH   1   7
ATOM      7  S   LIG    1        1.588  -2.612  -2.758  0.00  0.00    -0.120 S 
BRANCH   7   8
ATOM      8  C   LIG    1        0.739  -2.027  -1.265  0.00  0.00    +0.070 C 
BRANCH   8   9
ATOM      9  C   LIG    1        0.718  -0.497  -1.257  0.00  0.00    +0.030 C 
BRANCH   9  11
ATOM     10  C   LIG    1       -0.019   1.526   0.010  0.00  0.00    +0.030 C 
ATOM     11  C   LIG    1        0.002  -0.004   0.002  0.00  0.00    +0.000 C 
ENDBRANCH   9  11
ENDBRANCH   8   9
ENDBRANCH   7   8
ENDBRANCH   1   7
TORSDOF 4
ENDMDL
MODEL      600
REMARK  Name = ZINC000059451138
REMARK                            x       y       z     vdW  Elec       q    Type
REMARK                         _______ _______ _______ _____ _____    ______ ____
ROOT
ATOM      1  C   LIG    1       -2.848  -2.593   0.015  0.00  0.00    +0.030 C 
ATOM      2  C   LIG    1       -3.525  -2.205   1.331  0.00  0.00    +0.020 C 
ENDROOT
BRANCH   1   3
ATOM      3  C   LIG    1       -2.831  -4.094  -0.117  0.00  0.00    -0.080 A 
ATOM      4  C   LIG    1       -2.188  -4.864   0.835  0.00  0.00    +0.000 A 
ATOM      5  C   LIG    1       -2.172  -6.241   0.714  0.00  0.00    +0.000 A 
ATOM      6  C   LIG    1       -2.799  -6.848  -0.359  0.00  0.00    -0.010 A 
ATOM      7  C   LIG    1       -3.442  -6.078  -1.310  0.00  0.00    +0.000 A 
ATOM      8  C   LIG    1       -3.462  -4.701  -1.186  0.00  0.00    +0.000 A 
ENDBRANCH   1   3
BRANCH   1   9
ATOM      9  C   LIG    1       -1.413  -2.063   0.004  0.00  0.00    +0.010 C 
BRANCH   9  10
ATOM     10  C   LIG    1       -1.433  -0.534   0.013  0.00  0.00    +0.010 C 
BRANCH  10  12
ATOM     11  C   LIG    1       -0.019   1.526   0.010  0.00  0.00    +0.000 C 
ATOM     12  C   LIG    1        0.002  -0.004   0.002  0.00  0.00    -0.010 C 
ENDBRANCH  10  12
ENDBRANCH   9  10
ENDBRANCH   1   9
TORSDOF 4
ENDMDL
MODEL      601
REMARK  Name = ZINC000001085036
REMARK                            x       y       z     vdW  Elec       q    Type
REMARK                         _______ _______ _______ _____ _____    ______ ____
ROOT
ATOM      1  C   LIG    1        0.731  -0.503   1.223  0.00  0.00    -0.130 A 
ATOM      2  C   LIG    1        0.218  -1.307   2.197  0.00  0.00    +0.040 A 
ATOM      3  N   LIG    1        1.205  -1.526   3.124  0.00  0.00    -0.550 N 
ATOM      4  H   LIG    1        1.117  -2.063   3.927  0.00  0.00    +0.410 HD
ATOM      5  C   LIG    1        2.328  -0.861   2.730  0.00  0.00    +0.170 A 
ATOM      6  C   LIG    1        2.066  -0.231   1.564  0.00  0.00    -0.050 A 
ENDROOT
BRANCH   2   7
ATOM      7  C   LIG    1       -1.157  -1.847   2.245  0.00  0.00    -0.020 A 
ATOM      8  C   LIG    1       -2.245  -1.020   1.961  0.00  0.00    +0.030 A 
ATOM      9  C   LIG    1       -3.526  -1.531   2.007  0.00  0.00    +0.010 A 
ATOM     10  C   LIG    1       -3.733  -2.860   2.334  0.00  0.00    +0.000 A 
ATOM     11  C   LIG    1       -2.658  -3.684   2.616  0.00  0.00    +0.000 A 
ATOM     12  C   LIG    1       -1.372  -3.188   2.568  0.00  0.00    +0.000 A 
ENDBRANCH   2   7
BRANCH   1  14
ATOM     13  C   LIG    1       -0.019   1.526   0.010  0.00  0.00    +0.020 C 
ATOM     14  C   LIG    1        0.002  -0.004   0.002  0.00  0.00    +0.040 C 
ATOM     15  C   LIG    1        0.718  -0.497  -1.257  0.00  0.00    +0.020 C 
ENDBRANCH   1  14
TORSDOF 2
ENDMDL
MODEL      602
REMARK  Name = ZINC000001467747
REMARK                            x       y       z     vdW  Elec       q    Type
REMARK                         _______ _______ _______ _____ _____    ______ ____
ROOT
ATOM      1  C   LIG    1       -0.030   1.465  -0.013  0.00  0.00    +0.090 C 
ATOM      2  C   LIG    1        0.219  -0.021   0.010  0.00  0.00    -0.120 A 
ATOM      3  C   LIG    1        0.438  -0.704  -1.170  0.00  0.00    +0.050 A 
ATOM      4  C   LIG    1        0.665  -2.068  -1.149  0.00  0.00    -0.040 A 
ATOM      5  C   LIG    1        0.675  -2.751   0.052  0.00  0.00    +0.030 A 
ATOM      6  C   LIG    1        0.458  -2.072   1.236  0.00  0.00    -0.080 A 
ATOM      7  C   LIG    1        0.234  -0.703   1.218  0.00  0.00    +0.130 A 
ENDROOT
BRANCH   7   8
ATOM      8  O   LIG    1        0.020  -0.034   2.381  0.00  0.00    -0.310 OA
BRANCH   8   9
ATOM      9  C   LIG    1       -0.081  -0.817   3.572  0.00  0.00    +0.160 C 
ATOM     10  C   LIG    1        1.321  -1.087   4.124  0.00  0.00    -0.010 C 
ATOM     11  C   LIG    1        1.213  -1.926   5.399  0.00  0.00    +0.010 C 
ATOM     12  C   LIG    1        0.392  -1.165   6.442  0.00  0.00    +0.020 C 
ATOM     13  C   LIG    1       -1.010  -0.895   5.890  0.00  0.00    +0.010 C 
ATOM     14  C   LIG    1       -0.902  -0.056   4.615  0.00  0.00    +0.030 C 
ENDBRANCH   8   9
ENDBRANCH   7   8
TORSDOF 2
ENDMDL
MODEL      603
REMARK  Name = ZINC000001555244
REMARK                            x       y       z     vdW  Elec       q    Type
REMARK                         _______ _______ _______ _____ _____    ______ ____
ROOT
ATOM      1  C   LIG    1       -0.018   1.503   0.010  0.00  0.00    +0.100 C 
ATOM      2  C   LIG    1        0.002  -0.004   0.002  0.00  0.00    -0.060 A 
ATOM      3  C   LIG    1       -0.097  -0.684  -1.174  0.00  0.00    +0.010 A 
ATOM      4  C   LIG    1       -0.079  -2.077  -1.198  0.00  0.00    +0.040 A 
ATOM      5  C   LIG    1        0.037  -2.797  -0.049  0.00  0.00    +0.040 A 
ATOM      6  C   LIG    1        0.142  -2.132   1.185  0.00  0.00    +0.130 A 
ATOM      7  N   LIG    1        0.257  -2.813   2.329  0.00  0.00    -0.470 NA
ATOM      8  C   LIG    1        0.356  -2.198   3.483  0.00  0.00    +0.320 A 
ATOM      9  C   LIG    1        0.345  -0.809   3.576  0.00  0.00    -0.130 A 
ATOM     10  C   LIG    1        0.230  -0.050   2.444  0.00  0.00    +0.020 A 
ATOM     11 CL   LIG    1        0.214   1.684   2.529  0.00  0.00    -0.030 Cl
ATOM     12  C   LIG    1        0.461  -0.142   4.922  0.00  0.00    +0.120 C 
ATOM     13  C   LIG    1        0.129  -0.715   1.206  0.00  0.00    -0.090 A 
ENDROOT
TORSDOF 0
ENDMDL
MODEL      604
REMARK  Name = ZINC000001569112
REMARK                            x       y       z     vdW  Elec       q    Type
REMARK                         _______ _______ _______ _____ _____    ______ ____
ROOT
ATOM      1  C   LIG    1        1.240   0.100   2.104  0.00  0.00    +0.060 C 
ENDROOT
BRANCH   1   4
ATOM      2  C   LIG    1       -0.018   1.503   0.010  0.00  0.00    +0.060 C 
ATOM      3  C   LIG    1        0.002  -0.004   0.002  0.00  0.00    -0.060 C 
ATOM      4  C   LIG    1        0.588  -0.657   0.976  0.00  0.00    -0.130 C 
ATOM      5  C   LIG    1        0.608  -2.163   0.967  0.00  0.00    +0.070 C 
ENDBRANCH   1   4
BRANCH   1   6
ATOM      6  C   LIG    1        0.258   0.226   3.269  0.00  0.00    +0.050 C 
BRANCH   6   7
ATOM      7  C   LIG    1        0.910   0.982   4.397  0.00  0.00    -0.060 C 
ATOM      8  C   LIG    1        0.335   2.052   4.888  0.00  0.00    -0.130 C 
ATOM      9  C   LIG    1        0.988   2.808   6.016  0.00  0.00    +0.070 C 
ATOM     10  C   LIG    1       -0.979   2.526   4.325  0.00  0.00    +0.080 C 
ENDBRANCH   6   7
ENDBRANCH   1   6
TORSDOF 3
ENDMDL
MODEL      605
REMARK  Name = ZINC000001571259
REMARK                            x       y       z     vdW  Elec       q    Type
REMARK                         _______ _______ _______ _____ _____    ______ ____
ROOT
ATOM      1  C   LIG    1        1.409  -2.420  -2.587  0.00  0.00    -0.020 C 
ENDROOT
BRANCH   1   2
ATOM      2  C   LIG    1        2.889  -2.162  -2.301  0.00  0.00    +0.010 C 
ATOM      3  C   LIG    1        3.728  -2.626  -3.494  0.00  0.00    +0.000 C 
ENDBRANCH   1   2
BRANCH   1   4
ATOM      4  C   LIG    1        0.559  -1.813  -1.469  0.00  0.00    +0.000 C 
BRANCH   4   5
ATOM      5  C   LIG    1        0.714  -0.291  -1.480  0.00  0.00    +0.000 C 
BRANCH   5   7
ATOM      6  C   LIG    1        0.019   1.838  -0.371  0.00  0.00    +0.000 C 
ATOM      7  C   LIG    1       -0.135   0.316  -0.361  0.00  0.00    -0.010 C 
ENDBRANCH   5   7
ENDBRANCH   4   5
ENDBRANCH   1   4
BRANCH   1   8
ATOM      8  C   LIG    1        1.158  -3.928  -2.657  0.00  0.00    +0.030 C 
BRANCH   8   9
ATOM      9  C   LIG    1       -0.290  -4.185  -3.076  0.00  0.00    +0.020 C 
BRANCH   9  10
ATOM     10  C   LIG    1       -0.527  -5.670  -3.179  0.00  0.00    +0.350 C 
ATOM     11  O   LIG    1        0.371  -6.442  -2.943  0.00  0.00    -0.460 OA
ATOM     12  C   LIG    1       -1.884  -6.191  -3.578  0.00  0.00    +0.050 C 
ENDBRANCH   9  10
ENDBRANCH   8   9
ENDBRANCH   1   8
TORSDOF 7
ENDMDL
MODEL      606
REMARK  Name = ZINC000001577480
REMARK                            x       y       z     vdW  Elec       q    Type
REMARK                         _______ _______ _______ _____ _____    ______ ____
ROOT
ATOM      1  C   LIG    1       -4.263  -4.652   0.018  0.00  0.00    -0.020 C 
ATOM      2  C   LIG    1       -4.965  -4.250  -1.281  0.00  0.00    +0.020 C 
ATOM      3  C   LIG    1       -6.400  -4.780  -1.270  0.00  0.00    +0.030 C 
ATOM      4  C   LIG    1       -6.380  -6.305  -1.153  0.00  0.00    +0.150 C 
ATOM      5  C   LIG    1       -5.678  -6.707   0.146  0.00  0.00    -0.020 C 
ATOM      6  C   LIG    1       -4.242  -6.178   0.135  0.00  0.00    +0.020 C 
ENDROOT
BRANCH   4   7
ATOM      7  O   LIG    1       -5.676  -6.859  -2.266  0.00  0.00    -0.560 OA
ATOM      8  H   LIG    1       -5.624  -7.825  -2.257  0.00  0.00    +0.380 HD
ENDBRANCH   4   7
BRANCH   1   9
ATOM      9  C   LIG    1       -2.827  -4.123   0.007  0.00  0.00    +0.010 C 
BRANCH   9  10
ATOM     10  C   LIG    1       -2.848  -2.593   0.015  0.00  0.00    +0.000 C 
BRANCH  10  11
ATOM     11  C   LIG    1       -1.413  -2.063   0.004  0.00  0.00    +0.000 C 
BRANCH  11  12
ATOM     12  C   LIG    1       -1.433  -0.534   0.013  0.00  0.00    +0.000 C 
BRANCH  12  14
ATOM     13  C   LIG    1       -0.019   1.526   0.010  0.00  0.00    +0.000 C 
ATOM     14  C   LIG    1        0.002  -0.004   0.002  0.00  0.00    -0.010 C 
ENDBRANCH  12  14
ENDBRANCH  11  12
ENDBRANCH  10  11
ENDBRANCH   9  10
ENDBRANCH   1   9
TORSDOF 6
ENDMDL
MODEL      607
REMARK  Name = ZINC000001577482
REMARK                            x       y       z     vdW  Elec       q    Type
REMARK                         _______ _______ _______ _____ _____    ______ ____
ROOT
ATOM      1  C   LIG    1       -4.263  -4.652   0.018  0.00  0.00    -0.010 C 
ATOM      2  C   LIG    1       -4.966  -4.242  -1.277  0.00  0.00    +0.040 C 
ATOM      3  C   LIG    1       -6.430  -4.692  -1.226  0.00  0.00    +0.020 C 
ATOM      4  C   LIG    1       -6.466  -6.177  -0.941  0.00  0.00    +0.360 C 
ATOM      5  C   LIG    1       -5.678  -6.700   0.239  0.00  0.00    +0.020 C 
ATOM      6  O   LIG    1       -7.109  -6.926  -1.637  0.00  0.00    -0.460 OA
ATOM      7  C   LIG    1       -4.241  -6.177   0.135  0.00  0.00    +0.040 C 
ENDROOT
BRANCH   1   8
ATOM      8  C   LIG    1       -2.827  -4.123   0.007  0.00  0.00    +0.000 C 
BRANCH   8   9
ATOM      9  C   LIG    1       -2.848  -2.593   0.015  0.00  0.00    +0.000 C 
BRANCH   9  10
ATOM     10  C   LIG    1       -1.413  -2.063   0.004  0.00  0.00    +0.000 C 
BRANCH  10  11
ATOM     11  C   LIG    1       -1.433  -0.534   0.013  0.00  0.00    +0.000 C 
BRANCH  11  13
ATOM     12  C   LIG    1       -0.019   1.526   0.010  0.00  0.00    +0.000 C 
ATOM     13  C   LIG    1        0.002  -0.004   0.002  0.00  0.00    -0.010 C 
ENDBRANCH  11  13
ENDBRANCH  10  11
ENDBRANCH   9  10
ENDBRANCH   8   9
ENDBRANCH   1   8
TORSDOF 5
ENDMDL
MODEL      608
REMARK  Name = ZINC000001581763
REMARK                            x       y       z     vdW  Elec       q    Type
REMARK                         _______ _______ _______ _____ _____    ______ ____
ROOT
ATOM      1  C   LIG    1       -0.019   1.526   0.010  0.00  0.00    +0.080 C 
ATOM      2  C   LIG    1        0.002  -0.004   0.002  0.00  0.00    +0.010 C 
ATOM      3  S   LIG    1        1.003  -0.626  -1.388  0.00  0.00    -0.120 S 
ATOM      4  C   LIG    1        2.213  -1.472  -0.423  0.00  0.00    +0.070 C 
ATOM      5  C   LIG    1        1.908  -1.313   0.890  0.00  0.00    -0.130 C 
ATOM      6  C   LIG    1        2.647  -1.853   2.127  0.00  0.00    +0.020 C 
ATOM      7  C   LIG    1        4.069  -1.292   2.194  0.00  0.00    +0.080 C 
ATOM      8  C   LIG    1        2.668  -3.382   2.119  0.00  0.00    +0.080 C 
ATOM      9  S   LIG    1        1.646  -1.231   3.518  0.00  0.00    -0.120 S 
ATOM     10  C   LIG    1        0.435  -0.386   2.552  0.00  0.00    +0.070 C 
ATOM     11  C   LIG    1       -1.421  -0.561  -0.062  0.00  0.00    +0.080 C 
ATOM     12  C   LIG    1        0.741  -0.544   1.239  0.00  0.00    -0.130 C 
ENDROOT
TORSDOF 0
ENDMDL
MODEL      609
REMARK  Name = ZINC000001587748
REMARK                            x       y       z     vdW  Elec       q    Type
REMARK                         _______ _______ _______ _____ _____    ______ ____
ROOT
ATOM      1  C   LIG    1       -4.241  -4.644   0.018  0.00  0.00    +0.140 A 
ATOM      2  C   LIG    1       -4.651  -5.527  -0.964  0.00  0.00    -0.050 A 
ATOM      3  C   LIG    1       -5.954  -6.001  -0.945  0.00  0.00    +0.060 A 
ATOM      4  C   LIG    1       -6.799  -5.568   0.065  0.00  0.00    -0.050 A 
ATOM      5  C   LIG    1       -6.318  -4.685   1.013  0.00  0.00    +0.130 A 
ATOM      6  C   LIG    1       -7.227  -4.208   2.116  0.00  0.00    +0.120 C 
ATOM      7  N   LIG    1       -5.071  -4.258   0.967  0.00  0.00    -0.480 NA
ENDROOT
BRANCH   1   8
ATOM      8  C   LIG    1       -2.827  -4.123   0.007  0.00  0.00    +0.090 C 
BRANCH   8   9
ATOM      9  C   LIG    1       -2.848  -2.593   0.015  0.00  0.00    +0.020 C 
BRANCH   9  10
ATOM     10  C   LIG    1       -1.413  -2.063   0.004  0.00  0.00    +0.000 C 
BRANCH  10  11
ATOM     11  C   LIG    1       -1.433  -0.534   0.013  0.00  0.00    +0.000 C 
BRANCH  11  13
ATOM     12  C   LIG    1       -0.019   1.526   0.010  0.00  0.00    +0.000 C 
ATOM     13  C   LIG    1        0.002  -0.004   0.002  0.00  0.00    -0.010 C 
ENDBRANCH  11  13
ENDBRANCH  10  11
ENDBRANCH   9  10
ENDBRANCH   8   9
ENDBRANCH   1   8
TORSDOF 5
ENDMDL
MODEL      610
REMARK  Name = ZINC000001587727
REMARK                            x       y       z     vdW  Elec       q    Type
REMARK                         _______ _______ _______ _____ _____    ______ ____
ROOT
ATOM      1  C   LIG    1       -2.694  -4.277   0.087  0.00  0.00    +0.130 C 
ENDROOT
BRANCH   1   2
ATOM      2  O   LIG    1       -2.001  -4.961   1.133  0.00  0.00    -0.560 OA
ATOM      3  H   LIG    1       -2.391  -4.839   2.009  0.00  0.00    +0.370 HD
ENDBRANCH   1   2
BRANCH   1   4
ATOM      4  C   LIG    1       -2.697  -2.774   0.374  0.00  0.00    -0.010 C 
BRANCH   4   5
ATOM      5  C   LIG    1       -1.264  -2.243   0.324  0.00  0.00    +0.010 C 
BRANCH   5   6
ATOM      6  C   LIG    1       -1.267  -0.740   0.612  0.00  0.00    +0.000 C 
BRANCH   6   8
ATOM      7  C   LIG    1        0.164   1.294   0.849  0.00  0.00    +0.000 C 
ATOM      8  C   LIG    1        0.167  -0.208   0.562  0.00  0.00    -0.010 C 
ENDBRANCH   6   8
ENDBRANCH   5   6
ENDBRANCH   4   5
ENDBRANCH   1   4
BRANCH   1   9
ATOM      9  C   LIG    1       -1.993  -4.540  -1.247  0.00  0.00    +0.030 C 
BRANCH   9  10
ATOM     10  C   LIG    1       -1.990  -6.042  -1.535  0.00  0.00    +0.010 C 
ATOM     11  C   LIG    1       -1.246  -6.309  -2.845  0.00  0.00    +0.000 C 
ENDBRANCH   9  10
ENDBRANCH   1   9
BRANCH   1  12
ATOM     12  C   LIG    1       -4.136  -4.785   0.013  0.00  0.00    -0.010 C 
BRANCH  12  13
ATOM     13  C   LIG    1       -4.872  -4.418   1.303  0.00  0.00    -0.010 C 
ATOM     14  C   LIG    1       -6.269  -5.041   1.288  0.00  0.00    +0.000 C 
ENDBRANCH  12  13
ENDBRANCH   1  12
TORSDOF 9
ENDMDL
MODEL      611
REMARK  Name = ZINC000001587702
REMARK                            x       y       z     vdW  Elec       q    Type
REMARK                         _______ _______ _______ _____ _____    ______ ____
ROOT
ATOM      1  C   LIG    1        1.527  -2.581  -2.716  0.00  0.00    +0.130 C 
ENDROOT
BRANCH   1   2
ATOM      2  C   LIG    1        2.966  -2.179  -2.386  0.00  0.00    +0.030 C 
ATOM      3  C   LIG    1        3.040  -0.665  -2.182  0.00  0.00    +0.010 C 
ENDBRANCH   1   2
BRANCH   1   4
ATOM      4  O   LIG    1        1.107  -1.911  -3.906  0.00  0.00    -0.560 OA
ATOM      5  H   LIG    1        0.202  -2.119  -4.176  0.00  0.00    +0.370 HD
ENDBRANCH   1   4
BRANCH   1   6
ATOM      6  C   LIG    1        0.610  -2.185  -1.557  0.00  0.00    -0.010 C 
BRANCH   6   7
ATOM      7  C   LIG    1       -0.823  -2.625  -1.869  0.00  0.00    -0.010 C 
BRANCH   7   9
ATOM      8  C   LIG    1       -3.186  -2.597  -1.059  0.00  0.00    +0.000 C 
ATOM      9  C   LIG    1       -1.754  -2.158  -0.748  0.00  0.00    +0.000 C 
ENDBRANCH   7   9
ENDBRANCH   6   7
ENDBRANCH   1   6
BRANCH   1  10
ATOM     10  C   LIG    1        1.456  -4.094  -2.929  0.00  0.00    -0.010 C 
BRANCH  10  11
ATOM     11  C   LIG    1        2.465  -4.506  -4.003  0.00  0.00    +0.010 C 
BRANCH  11  12
ATOM     12  C   LIG    1        2.394  -6.019  -4.217  0.00  0.00    -0.010 C 
ATOM     13  C   LIG    1        3.403  -6.431  -5.290  0.00  0.00    +0.000 C 
ENDBRANCH  11  12
ENDBRANCH  10  11
ENDBRANCH   1  10
TORSDOF 8
ENDMDL
MODEL      612
REMARK  Name = ZINC000001587682
REMARK                            x       y       z     vdW  Elec       q    Type
REMARK                         _______ _______ _______ _____ _____    ______ ____
ROOT
ATOM      1  C   LIG    1        1.476  -4.051  -2.532  0.00  0.00    +0.130 C 
ATOM      2  C   LIG    1        2.105  -4.559  -1.234  0.00  0.00    +0.060 C 
ENDROOT
BRANCH   1   3
ATOM      3  O   LIG    1        0.139  -4.545  -2.640  0.00  0.00    -0.560 OA
ATOM      4  H   LIG    1       -0.322  -4.261  -3.441  0.00  0.00    +0.370 HD
ENDBRANCH   1   3
BRANCH   1   5
ATOM      5  C   LIG    1        1.455  -2.521  -2.524  0.00  0.00    -0.010 C 
BRANCH   5   6
ATOM      6  C   LIG    1        0.739  -2.027  -1.265  0.00  0.00    +0.010 C 
BRANCH   6   7
ATOM      7  C   LIG    1        0.718  -0.497  -1.257  0.00  0.00    +0.000 C 
BRANCH   7   9
ATOM      8  C   LIG    1       -0.019   1.526   0.010  0.00  0.00    +0.000 C 
ATOM      9  C   LIG    1        0.002  -0.004   0.002  0.00  0.00    -0.010 C 
ENDBRANCH   7   9
ENDBRANCH   6   7
ENDBRANCH   5   6
ENDBRANCH   1   5
BRANCH   1  10
ATOM     10  C   LIG    1        2.299  -4.543  -3.725  0.00  0.00    -0.020 C 
BRANCH  10  11
ATOM     11  C   LIG    1        2.320  -6.073  -3.733  0.00  0.00    +0.010 C 
BRANCH  11  12
ATOM     12  C   LIG    1        3.142  -6.565  -4.925  0.00  0.00    +0.000 C 
BRANCH  12  13
ATOM     13  C   LIG    1        3.163  -8.095  -4.934  0.00  0.00    -0.010 C 
ATOM     14  C   LIG    1        3.986  -8.587  -6.126  0.00  0.00    +0.000 C 
ENDBRANCH  12  13
ENDBRANCH  11  12
ENDBRANCH  10  11
ENDBRANCH   1  10
TORSDOF 9
ENDMDL
MODEL      613
REMARK  Name = ZINC000001587820
REMARK                            x       y       z     vdW  Elec       q    Type
REMARK                         _______ _______ _______ _____ _____    ______ ____
ROOT
ATOM      1  C   LIG    1       -0.018   1.503   0.010  0.00  0.00    +0.100 C 
ATOM      2  C   LIG    1        0.002  -0.004   0.002  0.00  0.00    -0.080 A 
ATOM      3  C   LIG    1        0.006  -0.689  -1.199  0.00  0.00    -0.010 A 
ATOM      4  C   LIG    1        0.025  -2.071  -1.206  0.00  0.00    -0.070 A 
ATOM      5  C   LIG    1        0.041  -2.768  -0.013  0.00  0.00    -0.090 A 
ATOM      6  C   LIG    1        0.038  -2.084   1.188  0.00  0.00    -0.080 A 
ATOM      7  C   LIG    1        0.056  -2.844   2.489  0.00  0.00    +0.080 C 
ATOM      8  C   LIG    1        0.028  -2.817  -2.516  0.00  0.00    +0.080 C 
ATOM      9  C   LIG    1        0.023  -0.702   1.195  0.00  0.00    -0.010 A 
ENDROOT
BRANCH   5  10
ATOM     10  C   LIG    1        0.061  -4.275  -0.021  0.00  0.00    +0.060 C 
BRANCH  10  11
ATOM     11  C   LIG    1        1.511  -4.765  -0.032  0.00  0.00    -0.020 C 
ATOM     12  C   LIG    1        2.182  -4.344  -1.341  0.00  0.00    +0.010 C 
ATOM     13  C   LIG    1        1.534  -6.290   0.085  0.00  0.00    +0.010 C 
ENDBRANCH  10  11
ENDBRANCH   5  10
TORSDOF 2
ENDMDL
MODEL      614
REMARK  Name = ZINC000001587703
REMARK                            x       y       z     vdW  Elec       q    Type
REMARK                         _______ _______ _______ _____ _____    ______ ____
ROOT
ATOM      1  C   LIG    1        1.616  -2.612   2.615  0.00  0.00    +0.140 C 
ENDROOT
BRANCH   1   2
ATOM      2  O   LIG    1        2.850  -1.925   2.836  0.00  0.00    -0.560 OA
ATOM      3  H   LIG    1        3.528  -2.111   2.172  0.00  0.00    +0.370 HD
ENDBRANCH   1   2
BRANCH   1   4
ATOM      4  C   LIG    1        1.042  -2.203   1.256  0.00  0.00    -0.010 C 
BRANCH   4   5
ATOM      5  C   LIG    1        2.014  -2.611   0.148  0.00  0.00    -0.010 C 
BRANCH   5   7
ATOM      6  C   LIG    1        2.449  -2.542  -2.311  0.00  0.00    +0.000 C 
ATOM      7  C   LIG    1        1.477  -2.134  -1.203  0.00  0.00    +0.000 C 
ENDBRANCH   5   7
ENDBRANCH   4   5
ENDBRANCH   1   4
BRANCH   1   8
ATOM      8  C   LIG    1        1.862  -4.122   2.631  0.00  0.00    -0.010 C 
BRANCH   8   9
ATOM      9  C   LIG    1        2.318  -4.549   4.027  0.00  0.00    +0.010 C 
BRANCH   9  10
ATOM     10  C   LIG    1        2.564  -6.059   4.044  0.00  0.00    -0.010 C 
ATOM     11  C   LIG    1        3.021  -6.486   5.440  0.00  0.00    +0.000 C 
ENDBRANCH   9  10
ENDBRANCH   8   9
ENDBRANCH   1   8
BRANCH   1  12
ATOM     12  C   LIG    1        0.623  -2.245   3.719  0.00  0.00    +0.030 C 
BRANCH  12  13
ATOM     13  C   LIG    1        0.386  -0.733   3.711  0.00  0.00    +0.010 C 
ATOM     14  C   LIG    1       -0.517  -0.352   4.886  0.00  0.00    +0.000 C 
ENDBRANCH  12  13
ENDBRANCH   1  12
TORSDOF 9
ENDMDL
MODEL      615
REMARK  Name = ZINC000001587714
REMARK                            x       y       z     vdW  Elec       q    Type
REMARK                         _______ _______ _______ _____ _____    ______ ____
ROOT
ATOM      1  C   LIG    1        2.164  -4.873  -2.203  0.00  0.00    +0.130 C 
ATOM      2  C   LIG    1        0.824  -5.473  -1.773  0.00  0.00    +0.050 C 
ENDROOT
BRANCH   1   3
ATOM      3  O   LIG    1        3.203  -5.833  -2.000  0.00  0.00    -0.550 OA
ATOM      4  H   LIG    1        4.083  -5.519  -2.251  0.00  0.00    +0.370 HD
ENDBRANCH   1   3
BRANCH   1   5
ATOM      5  C   LIG    1        2.454  -3.623  -1.371  0.00  0.00    -0.020 C 
BRANCH   5   6
ATOM      6  C   LIG    1        2.516  -4.000   0.111  0.00  0.00    +0.010 C 
BRANCH   6   7
ATOM      7  C   LIG    1        2.806  -2.750   0.944  0.00  0.00    +0.000 C 
BRANCH   7   9
ATOM      8  C   LIG    1        3.158  -1.877   3.258  0.00  0.00    +0.000 C 
ATOM      9  C   LIG    1        2.868  -3.127   2.425  0.00  0.00    -0.010 C 
ENDBRANCH   7   9
ENDBRANCH   6   7
ENDBRANCH   5   6
ENDBRANCH   1   5
BRANCH   1  10
ATOM     10  C   LIG    1        2.102  -4.496  -3.685  0.00  0.00    -0.010 C 
BRANCH  10  11
ATOM     11  C   LIG    1        1.733  -5.730  -4.510  0.00  0.00    -0.060 C 
ATOM     12  C   LIG    1        2.463  -6.954  -3.953  0.00  0.00    +0.030 C 
ATOM     13  C   LIG    1        2.144  -5.511  -5.968  0.00  0.00    +0.010 C 
ATOM     14  C   LIG    1        0.222  -5.960  -4.436  0.00  0.00    +0.010 C 
ENDBRANCH  10  11
ENDBRANCH   1  10
TORSDOF 7
ENDMDL
MODEL      616
REMARK  Name = ZINC000001592369
REMARK                            x       y       z     vdW  Elec       q    Type
REMARK                         _______ _______ _______ _____ _____    ______ ____
ROOT
ATOM      1  C   LIG    1       -0.018   1.503   0.010  0.00  0.00    +0.090 C 
ATOM      2  C   LIG    1        0.002  -0.004   0.002  0.00  0.00    -0.080 A 
ATOM      3  C   LIG    1        0.005  -0.684  -1.214  0.00  0.00    +0.000 A 
ATOM      4  C   LIG    1        0.024  -2.044  -1.257  0.00  0.00    +0.030 A 
ATOM      5  C   LIG    1        0.040  -2.777  -0.059  0.00  0.00    -0.050 A 
ATOM      6  C   LIG    1        0.059  -4.182  -0.062  0.00  0.00    -0.080 A 
ATOM      7  C   LIG    1        0.074  -4.859   1.118  0.00  0.00    +0.000 A 
ATOM      8  C   LIG    1        0.071  -4.179   2.335  0.00  0.00    +0.010 A 
ATOM      9  C   LIG    1        0.052  -2.819   2.378  0.00  0.00    -0.080 A 
ATOM     10  C   LIG    1        0.049  -2.103   3.704  0.00  0.00    +0.090 C 
ATOM     11  C   LIG    1        0.064  -4.936  -1.367  0.00  0.00    +0.090 C 
ATOM     12  C   LIG    1        0.036  -2.086   1.179  0.00  0.00    -0.040 A 
ATOM     13  C   LIG    1        0.022  -0.681   1.183  0.00  0.00    +0.020 A 
ENDROOT
TORSDOF 0
ENDMDL
MODEL      617
REMARK  Name = ZINC000001596962
REMARK                            x       y       z     vdW  Elec       q    Type
REMARK                         _______ _______ _______ _____ _____    ______ ____
ROOT
ATOM      1  C   LIG    1       -0.305   1.561  -0.313  0.00  0.00    +0.100 C 
ATOM      2  C   LIG    1       -0.272   0.063  -0.470  0.00  0.00    -0.140 C 
ATOM      3  C   LIG    1       -0.925  -0.588  -1.385  0.00  0.00    -0.100 C 
ATOM      4  C   LIG    1       -0.694  -2.072  -1.291  0.00  0.00    -0.100 C 
ATOM      5  C   LIG    1       -1.174  -2.825  -0.048  0.00  0.00    +0.000 C 
ATOM      6  C   LIG    1       -1.364  -4.338  -0.169  0.00  0.00    +0.050 C 
ATOM      7  C   LIG    1       -0.496  -2.834  -2.603  0.00  0.00    +0.070 C 
ATOM      8  C   LIG    1        0.258  -2.287  -0.101  0.00  0.00    -0.130 C 
ATOM      9  C   LIG    1        1.434  -3.263  -0.159  0.00  0.00    +0.080 C 
ATOM     10  C   LIG    1       -1.807   0.066  -2.418  0.00  0.00    +0.080 C 
ATOM     11  C   LIG    1        0.527  -0.861   0.412  0.00  0.00    +0.050 C 
ATOM     12  C   LIG    1        0.059  -0.727   1.863  0.00  0.00    +0.030 C 
ENDROOT
TORSDOF 0
ENDMDL
MODEL      618
REMARK  Name = ZINC000001600021
REMARK                            x       y       z     vdW  Elec       q    Type
REMARK                         _______ _______ _______ _____ _____    ______ ____
ROOT
ATOM      1  C   LIG    1       -0.018   1.503   0.010  0.00  0.00    +0.090 C 
ATOM      2  C   LIG    1        0.002  -0.004   0.002  0.00  0.00    -0.090 A 
ATOM      3  C   LIG    1        0.006  -0.686  -1.201  0.00  0.00    +0.020 A 
ATOM      4  C   LIG    1        0.024  -2.070  -1.214  0.00  0.00    +0.030 A 
ATOM      5  C   LIG    1        0.039  -2.771  -0.027  0.00  0.00    -0.100 A 
ATOM      6  C   LIG    1        0.060  -4.249   0.276  0.00  0.00    +0.160 C 
ATOM      7  C   LIG    1        0.069  -4.366   1.781  0.00  0.00    -0.100 A 
ATOM      8  C   LIG    1        0.088  -5.456   2.624  0.00  0.00    +0.030 A 
ATOM      9  C   LIG    1        0.092  -5.271   3.996  0.00  0.00    +0.020 A 
ATOM     10  C   LIG    1        0.078  -3.992   4.523  0.00  0.00    -0.090 A 
ATOM     11  C   LIG    1        0.059  -2.896   3.686  0.00  0.00    +0.020 A 
ATOM     12  C   LIG    1        0.083  -3.796   6.017  0.00  0.00    +0.090 C 
ATOM     13  C   LIG    1        0.054  -3.075   2.302  0.00  0.00    -0.050 A 
ATOM     14  C   LIG    1        0.036  -2.093   1.189  0.00  0.00    -0.050 A 
ATOM     15  C   LIG    1        0.023  -0.698   1.194  0.00  0.00    +0.020 A 
ENDROOT
TORSDOF 0
ENDMDL
MODEL      619
REMARK  Name = ZINC000001598547
REMARK                            x       y       z     vdW  Elec       q    Type
REMARK                         _______ _______ _______ _____ _____    ______ ____
ROOT
ATOM      1  C   LIG    1        0.731  -0.503   1.223  0.00  0.00    -0.080 A 
ATOM      2  C   LIG    1        2.097  -0.710   1.176  0.00  0.00    +0.000 A 
ATOM      3  C   LIG    1        2.766  -1.167   2.296  0.00  0.00    +0.010 A 
ATOM      4  C   LIG    1        2.068  -1.419   3.463  0.00  0.00    -0.080 A 
ATOM      5  C   LIG    1        0.702  -1.211   3.510  0.00  0.00    +0.010 A 
ATOM      6  C   LIG    1        0.034  -0.750   2.391  0.00  0.00    +0.000 A 
ENDROOT
BRANCH   1   8
ATOM      7  C   LIG    1       -0.019   1.526   0.010  0.00  0.00    +0.030 C 
ATOM      8  C   LIG    1        0.002  -0.004   0.002  0.00  0.00    +0.050 C 
ENDBRANCH   1   8
BRANCH   4   9
ATOM      9  C   LIG    1        2.797  -1.918   4.684  0.00  0.00    +0.120 C 
BRANCH   9  10
ATOM     10  C   LIG    1        3.257  -0.745   5.509  0.00  0.00    -0.080 A 
ATOM     11  C   LIG    1        4.498  -0.181   5.277  0.00  0.00    +0.000 A 
ATOM     12  C   LIG    1        4.921   0.896   6.034  0.00  0.00    +0.000 A 
ATOM     13  C   LIG    1        4.102   1.409   7.023  0.00  0.00    +0.000 A 
ATOM     14  C   LIG    1        2.861   0.845   7.255  0.00  0.00    +0.000 A 
ATOM     15  C   LIG    1        2.437  -0.229   6.495  0.00  0.00    +0.000 A 
ENDBRANCH   9  10
ENDBRANCH   4   9
TORSDOF 3
ENDMDL
MODEL      620
REMARK  Name = ZINC000001598548
REMARK                            x       y       z     vdW  Elec       q    Type
REMARK                         _______ _______ _______ _____ _____    ______ ____
ROOT
ATOM      1  C   LIG    1        0.699  -0.347  -1.268  0.00  0.00    -0.080 A 
ATOM      2  C   LIG    1       -0.043  -0.636  -2.398  0.00  0.00    +0.000 A 
ATOM      3  C   LIG    1        0.595  -0.941  -3.586  0.00  0.00    +0.000 A 
ATOM      4  C   LIG    1        1.976  -0.956  -3.644  0.00  0.00    +0.000 A 
ATOM      5  C   LIG    1        2.719  -0.666  -2.514  0.00  0.00    +0.010 A 
ATOM      6  C   LIG    1        2.080  -0.357  -1.328  0.00  0.00    -0.080 A 
ENDROOT
BRANCH   1   8
ATOM      7  C   LIG    1       -0.134   1.504   0.157  0.00  0.00    +0.030 C 
ATOM      8  C   LIG    1        0.003  -0.014   0.026  0.00  0.00    +0.050 C 
ENDBRANCH   1   8
BRANCH   6   9
ATOM      9  C   LIG    1        2.890  -0.041  -0.097  0.00  0.00    +0.140 C 
BRANCH   9  10
ATOM     10  C   LIG    1        4.356  -0.051  -0.444  0.00  0.00    -0.080 A 
ATOM     11  C   LIG    1        5.088  -1.218  -0.320  0.00  0.00    +0.000 A 
ATOM     12  C   LIG    1        6.433  -1.227  -0.638  0.00  0.00    +0.000 A 
ATOM     13  C   LIG    1        7.047  -0.070  -1.080  0.00  0.00    +0.000 A 
ATOM     14  C   LIG    1        6.315   1.097  -1.205  0.00  0.00    +0.000 A 
ATOM     15  C   LIG    1        4.969   1.105  -0.890  0.00  0.00    +0.000 A 
ENDBRANCH   9  10
ENDBRANCH   6   9
TORSDOF 3
ENDMDL
MODEL      621
REMARK  Name = ZINC000001598516
REMARK                            x       y       z     vdW  Elec       q    Type
REMARK                         _______ _______ _______ _____ _____    ______ ____
ROOT
ATOM      1  C   LIG    1        0.739  -2.004  -1.265  0.00  0.00    -0.090 A 
ATOM      2  C   LIG    1        0.444  -2.706  -0.111  0.00  0.00    +0.020 A 
ATOM      3  C   LIG    1        0.463  -4.088  -0.119  0.00  0.00    +0.010 A 
ATOM      4  C   LIG    1        0.776  -4.769  -1.280  0.00  0.00    +0.010 A 
ATOM      5  C   LIG    1        1.070  -4.067  -2.435  0.00  0.00    +0.000 A 
ATOM      6  C   LIG    1        1.047  -2.685  -2.428  0.00  0.00    +0.030 A 
ENDROOT
BRANCH   1   7
ATOM      7  C   LIG    1        0.718  -0.497  -1.257  0.00  0.00    +0.070 C 
ATOM      8 CL   LIG    1       -0.154   0.100  -2.717  0.00  0.00    -0.170 Cl
ATOM      9  C   LIG    1        2.154   0.032  -1.268  0.00  0.00    +0.070 C 
BRANCH   7  11
ATOM     10  C   LIG    1       -0.019   1.526   0.010  0.00  0.00    +0.030 C 
ATOM     11  C   LIG    1        0.002  -0.004   0.002  0.00  0.00    +0.040 C 
ENDBRANCH   7  11
ENDBRANCH   1   7
TORSDOF 2
ENDMDL
MODEL      622
REMARK  Name = ZINC000001600245
REMARK                            x       y       z     vdW  Elec       q    Type
REMARK                         _______ _______ _______ _____ _____    ______ ____
ROOT
ATOM      1  C   LIG    1       -1.412  -0.526   0.013  0.00  0.00    -0.080 A 
ATOM      2  C   LIG    1       -2.258  -0.203   1.057  0.00  0.00    +0.020 A 
ATOM      3  C   LIG    1       -3.555  -0.680   1.069  0.00  0.00    -0.010 A 
ATOM      4  C   LIG    1       -4.007  -1.482   0.032  0.00  0.00    +0.100 A 
ATOM      5  C   LIG    1       -3.156  -1.804  -1.015  0.00  0.00    -0.090 A 
ATOM      6  C   LIG    1       -1.862  -1.321  -1.025  0.00  0.00    +0.020 A 
ENDROOT
BRANCH   5   7
ATOM      7  C   LIG    1       -3.644  -2.675  -2.144  0.00  0.00    -0.020 C 
ATOM      8  C   LIG    1       -4.834  -2.002  -2.830  0.00  0.00    +0.030 C 
ATOM      9  C   LIG    1       -4.077  -4.034  -1.589  0.00  0.00    +0.030 C 
ATOM     10  C   LIG    1       -2.517  -2.875  -3.159  0.00  0.00    +0.030 C 
ENDBRANCH   5   7
BRANCH   1  12
ATOM     11  C   LIG    1       -0.019   1.526   0.010  0.00  0.00    +0.030 C 
ATOM     12  C   LIG    1        0.002  -0.004   0.002  0.00  0.00    +0.020 C 
ATOM     13  C   LIG    1        0.742  -0.511   1.242  0.00  0.00    +0.030 C 
ENDBRANCH   1  12
BRANCH   4  14
ATOM     14  O   LIG    1       -5.283  -1.952   0.041  0.00  0.00    -0.490 OA
ATOM     15  H   LIG    1       -5.919  -1.370  -0.395  0.00  0.00    +0.380 HD
ENDBRANCH   4  14
TORSDOF 3
ENDMDL
MODEL      623
REMARK  Name = ZINC000001602838
REMARK                            x       y       z     vdW  Elec       q    Type
REMARK                         _______ _______ _______ _____ _____    ______ ____
ROOT
ATOM      1  C   LIG    1        1.503  -2.548   2.473  0.00  0.00    +0.010 C 
ENDROOT
BRANCH   1   2
ATOM      2  C   LIG    1        1.524  -4.077   2.464  0.00  0.00    -0.020 C 
ATOM      3  C   LIG    1        2.346  -4.570   1.272  0.00  0.00    +0.020 C 
BRANCH   2   4
ATOM      4  C   LIG    1        2.152  -4.586   3.763  0.00  0.00    -0.020 C 
ATOM      5  C   LIG    1        2.173  -6.116   3.755  0.00  0.00    +0.010 C 
ATOM      6  C   LIG    1        1.330  -4.094   4.955  0.00  0.00    +0.010 C 
ENDBRANCH   2   4
ENDBRANCH   1   2
BRANCH   1   7
ATOM      7  C   LIG    1        0.763  -2.041   1.233  0.00  0.00    +0.000 C 
BRANCH   7   8
ATOM      8  C   LIG    1        0.742  -0.511   1.242  0.00  0.00    +0.000 C 
BRANCH   8  10
ATOM      9  C   LIG    1       -0.019   1.526   0.010  0.00  0.00    +0.000 C 
ATOM     10  C   LIG    1        0.002  -0.004   0.002  0.00  0.00    -0.010 C 
ENDBRANCH   8  10
ENDBRANCH   7   8
ENDBRANCH   1   7
TORSDOF 5
ENDMDL
MODEL      624
REMARK  Name = ZINC000001646478
REMARK                            x       y       z     vdW  Elec       q    Type
REMARK                         _______ _______ _______ _____ _____    ______ ____
ROOT
ATOM      1  C   LIG    1       -1.268  -0.760   0.010  0.00  0.00    -0.070 A 
ATOM      2  C   LIG    1       -2.260  -0.454   0.942  0.00  0.00    -0.070 A 
ATOM      3  C   LIG    1       -3.443  -1.164   0.944  0.00  0.00    +0.000 A 
ATOM      4  C   LIG    1       -3.647  -2.178   0.025  0.00  0.00    -0.080 A 
ATOM      5  C   LIG    1       -2.667  -2.486  -0.902  0.00  0.00    -0.090 A 
ATOM      6  C   LIG    1       -2.897  -3.592  -1.899  0.00  0.00    +0.090 C 
ATOM      7  C   LIG    1       -4.941  -2.949   0.034  0.00  0.00    +0.090 C 
ATOM      8  C   LIG    1       -2.040   0.651   1.943  0.00  0.00    +0.080 C 
ATOM      9  C   LIG    1       -1.482  -1.781  -0.918  0.00  0.00    -0.070 A 
ATOM     10  C   LIG    1       -0.416  -2.118  -1.929  0.00  0.00    +0.090 C 
ENDROOT
BRANCH   1  12
ATOM     11  C   LIG    1       -0.016   1.321   0.009  0.00  0.00    +0.020 C 
ATOM     12  C   LIG    1        0.002  -0.004   0.002  0.00  0.00    +0.000 C 
ENDBRANCH   1  12
TORSDOF 1
ENDMDL
MODEL      625
REMARK  Name = ZINC000001656093
REMARK                            x       y       z     vdW  Elec       q    Type
REMARK                         _______ _______ _______ _____ _____    ______ ____
ROOT
ATOM      1  C   LIG    1        1.054  -0.070   1.614  0.00  0.00    +0.000 C 
ENDROOT
BRANCH   1   3
ATOM      2  C   LIG    1        1.869   1.664   0.010  0.00  0.00    +0.000 C 
ATOM      3  C   LIG    1        2.183   0.312   0.654  0.00  0.00    -0.010 C 
ATOM      4  C   LIG    1        3.500   0.408   1.427  0.00  0.00    +0.020 C 
ENDBRANCH   1   3
BRANCH   1   5
ATOM      5  C   LIG    1       -0.269  -0.126   0.849  0.00  0.00    +0.160 C 
ATOM      6  C   LIG    1       -1.416  -0.374   1.831  0.00  0.00    +0.000 C 
BRANCH   5   7
ATOM      7  O   LIG    1       -0.222  -1.188  -0.106  0.00  0.00    -0.560 OA
ATOM      8  H   LIG    1       -1.030  -1.283  -0.629  0.00  0.00    +0.370 HD
ENDBRANCH   5   7
ENDBRANCH   1   5
BRANCH   1   9
ATOM      9  C   LIG    1        1.348  -1.440   2.227  0.00  0.00    +0.030 C 
BRANCH   9  10
ATOM     10  C   LIG    1        2.315  -1.277   3.401  0.00  0.00    -0.020 C 
ATOM     11  C   LIG    1        1.626  -0.502   4.526  0.00  0.00    +0.010 C 
ATOM     12  C   LIG    1        2.593  -0.338   5.700  0.00  0.00    +0.000 C 
ATOM     13  C   LIG    1        3.010  -1.718   6.213  0.00  0.00    +0.000 C 
ATOM     14  C   LIG    1        3.699  -2.494   5.088  0.00  0.00    +0.000 C 
ATOM     15  C   LIG    1        2.732  -2.657   3.914  0.00  0.00    +0.010 C 
ENDBRANCH   9  10
ENDBRANCH   1   9
TORSDOF 5
ENDMDL
MODEL      626
REMARK  Name = ZINC000001656090
REMARK                            x       y       z     vdW  Elec       q    Type
REMARK                         _______ _______ _______ _____ _____    ______ ____
ROOT
ATOM      1  C   LIG    1        0.945  -0.229   0.964  0.00  0.00    +0.000 C 
ENDROOT
BRANCH   1   3
ATOM      2  C   LIG    1       -0.799   1.478   0.428  0.00  0.00    +0.010 C 
ATOM      3  C   LIG    1       -0.264   0.087   0.081  0.00  0.00    -0.020 C 
ATOM      4  C   LIG    1        0.156   0.056  -1.390  0.00  0.00    +0.020 C 
ENDBRANCH   1   3
BRANCH   1   5
ATOM      5  C   LIG    1        1.482  -1.618   0.614  0.00  0.00    +0.150 C 
ATOM      6  C   LIG    1        0.354  -2.646   0.735  0.00  0.00    +0.000 C 
BRANCH   5   7
ATOM      7  O   LIG    1        1.980  -1.613  -0.725  0.00  0.00    -0.560 OA
ATOM      8  H   LIG    1        2.337  -2.464  -1.015  0.00  0.00    +0.370 HD
ENDBRANCH   5   7
ENDBRANCH   1   5
BRANCH   1   9
ATOM      9  C   LIG    1        0.524  -0.200   2.434  0.00  0.00    +0.020 C 
BRANCH   9  10
ATOM     10  C   LIG    1        1.760  -0.361   3.322  0.00  0.00    -0.020 C 
ATOM     11  C   LIG    1        2.657   0.870   3.176  0.00  0.00    +0.000 C 
ATOM     12  C   LIG    1        3.893   0.708   4.063  0.00  0.00    +0.000 C 
ATOM     13  C   LIG    1        3.457   0.565   5.523  0.00  0.00    +0.000 C 
ATOM     14  C   LIG    1        2.560  -0.666   5.669  0.00  0.00    +0.000 C 
ATOM     15  C   LIG    1        1.324  -0.504   4.782  0.00  0.00    +0.010 C 
ENDBRANCH   9  10
ENDBRANCH   1   9
TORSDOF 5
ENDMDL
MODEL      627
REMARK  Name = ZINC000001665753
REMARK                            x       y       z     vdW  Elec       q    Type
REMARK                         _______ _______ _______ _____ _____    ______ ____
ROOT
ATOM      1  C   LIG    1       -0.555   1.364  -0.398  0.00  0.00    +0.040 C 
ATOM      2  C   LIG    1        0.002  -0.004   0.002  0.00  0.00    +0.080 C 
ENDROOT
BRANCH   2   3
ATOM      3  C   LIG    1        0.884   0.148   1.214  0.00  0.00    -0.070 A 
ATOM      4  C   LIG    1        1.899   1.086   1.218  0.00  0.00    +0.010 A 
ATOM      5  C   LIG    1        2.708   1.226   2.330  0.00  0.00    +0.000 A 
ATOM      6  C   LIG    1        2.502   0.427   3.439  0.00  0.00    +0.000 A 
ATOM      7  C   LIG    1        1.487  -0.511   3.436  0.00  0.00    +0.000 A 
ATOM      8  C   LIG    1        0.675  -0.648   2.325  0.00  0.00    +0.000 A 
ENDBRANCH   2   3
BRANCH   2   9
ATOM      9  C   LIG    1        0.808  -0.571  -1.138  0.00  0.00    -0.070 A 
ATOM     10  C   LIG    1        0.541  -1.843  -1.608  0.00  0.00    +0.000 A 
ATOM     11  C   LIG    1        1.281  -2.363  -2.654  0.00  0.00    +0.000 A 
ATOM     12  C   LIG    1        2.288  -1.610  -3.230  0.00  0.00    +0.000 A 
ATOM     13  C   LIG    1        2.554  -0.338  -2.760  0.00  0.00    +0.000 A 
ATOM     14  C   LIG    1        1.811   0.184  -1.717  0.00  0.00    +0.010 A 
ENDBRANCH   2   9
TORSDOF 2
ENDMDL
MODEL      628
REMARK  Name = ZINC000001667911
REMARK                            x       y       z     vdW  Elec       q    Type
REMARK                         _______ _______ _______ _____ _____    ______ ____
ROOT
ATOM      1  S   LIG    1       -3.114  -2.691   0.017  0.00  0.00    -0.250 S 
ENDROOT
BRANCH   1   2
ATOM      2  C   LIG    1       -2.885  -4.491   0.005  0.00  0.00    -0.030 C 
ATOM      3  C   LIG    1       -2.094  -4.912   1.245  0.00  0.00    +0.050 C 
ATOM      4  C   LIG    1       -2.118  -4.899  -1.253  0.00  0.00    +0.030 C 
BRANCH   2   5
ATOM      5  C   LIG    1       -4.252  -5.179   0.015  0.00  0.00    +0.040 C 
ATOM      6  C   LIG    1       -4.994  -4.857  -1.284  0.00  0.00    +0.030 C 
ENDBRANCH   2   5
ENDBRANCH   1   2
BRANCH   1   7
ATOM      7  C   LIG    1       -1.413  -2.063   0.004  0.00  0.00    +0.070 C 
BRANCH   7   8
ATOM      8  C   LIG    1       -1.433  -0.534   0.013  0.00  0.00    +0.040 C 
BRANCH   8  10
ATOM      9  C   LIG    1       -0.019   1.526   0.010  0.00  0.00    +0.030 C 
ATOM     10  C   LIG    1        0.002  -0.004   0.002  0.00  0.00    +0.000 C 
ENDBRANCH   8  10
ENDBRANCH   7   8
ENDBRANCH   1   7
TORSDOF 5
ENDMDL
MODEL      629
REMARK  Name = ZINC000001671645
REMARK                            x       y       z     vdW  Elec       q    Type
REMARK                         _______ _______ _______ _____ _____    ______ ____
ROOT
ATOM      1  C   LIG    1       -0.018   1.503   0.010  0.00  0.00    +0.140 C 
ATOM      2  C   LIG    1        0.002  -0.004   0.002  0.00  0.00    +0.170 A 
ATOM      3  C   LIG    1        0.005  -0.675  -1.218  0.00  0.00    -0.130 A 
ATOM      4  C   LIG    1        0.024  -2.042  -1.244  0.00  0.00    +0.020 A 
ATOM      5  C   LIG    1        0.040  -2.730  -0.015  0.00  0.00    -0.100 A 
ATOM      6  C   LIG    1        0.060  -4.133   0.037  0.00  0.00    +0.030 A 
ATOM      7  C   LIG    1        0.075  -4.761   1.245  0.00  0.00    +0.020 A 
ATOM      8  C   LIG    1        0.071  -4.030   2.431  0.00  0.00    +0.030 A 
ATOM      9  C   LIG    1        0.051  -2.669   2.417  0.00  0.00    +0.050 A 
ATOM     10  C   LIG    1        0.035  -1.984   1.189  0.00  0.00    +0.140 A 
ATOM     11 CL   LIG    1        0.029  -2.905  -2.751  0.00  0.00    -0.040 Cl
ATOM     12  C   LIG    1       -0.011   0.105  -2.507  0.00  0.00    +0.120 C 
ATOM     13  N   LIG    1        0.022  -0.648   1.144  0.00  0.00    -0.470 NA
ENDROOT
TORSDOF 0
ENDMDL
MODEL      630
REMARK  Name = ZINC000001672022
REMARK                            x       y       z     vdW  Elec       q    Type
REMARK                         _______ _______ _______ _____ _____    ______ ____
ROOT
ATOM      1  C   LIG    1       -2.827  -4.123   0.007  0.00  0.00    +0.090 C 
ENDROOT
BRANCH   1   2
ATOM      2  C   LIG    1       -4.263  -4.652   0.018  0.00  0.00    +0.120 C 
ATOM      3  S   LIG    1       -5.074  -4.372  -1.606  0.00  0.00    -0.240 S 
ATOM      4  C   LIG    1       -6.355  -5.671  -1.476  0.00  0.00    +0.140 C 
ATOM      5  C   LIG    1       -5.677  -6.925  -0.914  0.00  0.00    +0.130 C 
ATOM      6  S   LIG    1       -4.282  -6.477   0.157  0.00  0.00    -0.250 S 
ENDBRANCH   1   2
BRANCH   1   7
ATOM      7  C   LIG    1       -2.848  -2.593   0.015  0.00  0.00    +0.020 C 
BRANCH   7   8
ATOM      8  C   LIG    1       -1.413  -2.063   0.004  0.00  0.00    +0.000 C 
BRANCH   8   9
ATOM      9  C   LIG    1       -1.433  -0.534   0.013  0.00  0.00    +0.000 C 
BRANCH   9  11
ATOM     10  C   LIG    1       -0.019   1.526   0.010  0.00  0.00    +0.000 C 
ATOM     11  C   LIG    1        0.002  -0.004   0.002  0.00  0.00    -0.010 C 
ENDBRANCH   9  11
ENDBRANCH   8   9
ENDBRANCH   7   8
ENDBRANCH   1   7
TORSDOF 5
ENDMDL
MODEL      631
REMARK  Name = ZINC000001679947
REMARK                            x       y       z     vdW  Elec       q    Type
REMARK                         _______ _______ _______ _____ _____    ______ ____
ROOT
ATOM      1  C   LIG    1        1.503  -2.548   2.473  0.00  0.00    +0.030 C 
ENDROOT
BRANCH   1   2
ATOM      2  C   LIG    1        1.524  -4.077   2.464  0.00  0.00    +0.020 C 
ATOM      3 CL   LIG    1        2.493  -4.658   1.059  0.00  0.00    -0.180 Cl
ATOM      4  C   LIG    1        0.092  -4.606   2.349  0.00  0.00    +0.050 C 
ATOM      5  C   LIG    1        2.152  -4.586   3.763  0.00  0.00    +0.060 C 
ENDBRANCH   1   2
BRANCH   1   6
ATOM      6  C   LIG    1        0.763  -2.041   1.233  0.00  0.00    +0.010 C 
BRANCH   6   7
ATOM      7  C   LIG    1        0.742  -0.511   1.242  0.00  0.00    +0.000 C 
BRANCH   7   9
ATOM      8  C   LIG    1       -0.019   1.526   0.010  0.00  0.00    +0.000 C 
ATOM      9  C   LIG    1        0.002  -0.004   0.002  0.00  0.00    -0.010 C 
ENDBRANCH   7   9
ENDBRANCH   6   7
ENDBRANCH   1   6
TORSDOF 4
ENDMDL
MODEL      632
REMARK  Name = ZINC000001683862
REMARK                            x       y       z     vdW  Elec       q    Type
REMARK                         _______ _______ _______ _____ _____    ______ ____
ROOT
ATOM      1  C   LIG    1        0.739  -2.004  -1.265  0.00  0.00    -0.080 A 
ATOM      2  C   LIG    1        0.155  -2.709  -0.231  0.00  0.00    +0.010 A 
ATOM      3  C   LIG    1        0.174  -4.092  -0.237  0.00  0.00    -0.090 A 
ATOM      4  C   LIG    1        0.776  -4.772  -1.279  0.00  0.00    +0.010 A 
ATOM      5  C   LIG    1        1.361  -4.072  -2.317  0.00  0.00    -0.100 A 
ATOM      6  C   LIG    1        2.017  -4.814  -3.452  0.00  0.00    +0.100 C 
ATOM      7  C   LIG    1       -0.464  -4.859   0.893  0.00  0.00    +0.090 C 
ATOM      8  C   LIG    1        1.339  -2.685  -2.315  0.00  0.00    +0.100 A 
ENDROOT
BRANCH   1   9
ATOM      9  C   LIG    1        0.718  -0.497  -1.257  0.00  0.00    -0.020 C 
ATOM     10  C   LIG    1        2.154   0.032  -1.268  0.00  0.00    +0.040 C 
ATOM     11  C   LIG    1       -0.022   0.009  -2.496  0.00  0.00    +0.030 C 
BRANCH   9  13
ATOM     12  C   LIG    1       -0.019   1.526   0.010  0.00  0.00    +0.010 C 
ATOM     13  C   LIG    1        0.002  -0.004   0.002  0.00  0.00    +0.000 C 
ENDBRANCH   9  13
ENDBRANCH   1   9
BRANCH   8  14
ATOM     14  O   LIG    1        1.913  -1.994  -3.334  0.00  0.00    -0.490 OA
ATOM     15  H   LIG    1        1.313  -1.805  -4.069  0.00  0.00    +0.380 HD
ENDBRANCH   8  14
TORSDOF 3
ENDMDL
MODEL      633
REMARK  Name = ZINC000001685158
REMARK                            x       y       z     vdW  Elec       q    Type
REMARK                         _______ _______ _______ _____ _____    ______ ____
ROOT
ATOM      1  C   LIG    1       -0.019   1.526   0.010  0.00  0.00    +0.050 C 
ATOM      2  C   LIG    1        0.002  -0.004   0.002  0.00  0.00    -0.020 C 
ATOM      3  C   LIG    1        0.718  -0.497  -1.257  0.00  0.00    +0.020 C 
ATOM      4  C   LIG    1        2.154   0.032  -1.268  0.00  0.00    +0.010 C 
ATOM      5  C   LIG    1        2.894  -0.475  -0.028  0.00  0.00    +0.000 C 
ATOM      6  C   LIG    1        2.178   0.019   1.231  0.00  0.00    +0.010 C 
ATOM      7  C   LIG    1        0.742  -0.511   1.242  0.00  0.00    +0.020 C 
ENDROOT
BRANCH   2   8
ATOM      8  C   LIG    1       -1.412  -0.526   0.013  0.00  0.00    -0.070 A 
ATOM      9  C   LIG    1       -1.845  -1.327   1.052  0.00  0.00    +0.010 A 
ATOM     10  C   LIG    1       -3.142  -1.806   1.062  0.00  0.00    +0.000 A 
ATOM     11  C   LIG    1       -4.006  -1.482   0.033  0.00  0.00    -0.010 A 
ATOM     12  C   LIG    1       -3.573  -0.680  -1.006  0.00  0.00    +0.000 A 
ATOM     13  C   LIG    1       -2.277  -0.198  -1.014  0.00  0.00    +0.000 A 
ENDBRANCH   2   8
TORSDOF 1
ENDMDL
MODEL      634
REMARK  Name = ZINC000001685925
REMARK                            x       y       z     vdW  Elec       q    Type
REMARK                         _______ _______ _______ _____ _____    ______ ____
ROOT
ATOM      1  C   LIG    1        0.707  -0.490  -1.238  0.00  0.00    -0.060 A 
ATOM      2  C   LIG    1       -0.011  -0.718  -2.397  0.00  0.00    +0.040 A 
ATOM      3  C   LIG    1        0.635  -1.164  -3.535  0.00  0.00    +0.040 A 
ATOM      4  C   LIG    1        2.001  -1.382  -3.514  0.00  0.00    -0.040 A 
ATOM      5  C   LIG    1        2.720  -1.153  -2.353  0.00  0.00    -0.030 A 
ATOM      6 CL   LIG    1        4.434  -1.426  -2.326  0.00  0.00    -0.050 Cl
ATOM      7 CL   LIG    1        2.812  -1.941  -4.943  0.00  0.00    -0.050 Cl
ATOM      8  C   LIG    1        2.073  -0.702  -1.217  0.00  0.00    +0.040 A 
ENDROOT
BRANCH   1  10
ATOM      9  C   LIG    1       -0.019   1.526   0.010  0.00  0.00    +0.030 C 
ATOM     10  C   LIG    1        0.002  -0.004   0.002  0.00  0.00    +0.070 C 
ENDBRANCH   1  10
TORSDOF 1
ENDMDL
MODEL      635
REMARK  Name = ZINC000001689944
REMARK                            x       y       z     vdW  Elec       q    Type
REMARK                         _______ _______ _______ _____ _____    ______ ____
ROOT
ATOM      1  C   LIG    1        1.492  -2.540   2.454  0.00  0.00    -0.130 A 
ATOM      2  C   LIG    1        2.862  -2.750   2.417  0.00  0.00    +0.060 A 
ATOM      3  C   LIG    1        3.490  -3.209   3.564  0.00  0.00    -0.130 A 
ATOM      4  C   LIG    1        2.736  -3.441   4.699  0.00  0.00    +0.240 A 
ATOM      5  N   LIG    1        1.434  -3.231   4.697  0.00  0.00    -0.480 NA
ATOM      6  C   LIG    1        0.804  -2.789   3.627  0.00  0.00    +0.240 A 
ENDROOT
BRANCH   1   7
ATOM      7  C   LIG    1        0.763  -2.041   1.233  0.00  0.00    +0.070 C 
BRANCH   7   8
ATOM      8  C   LIG    1        0.742  -0.511   1.242  0.00  0.00    +0.010 C 
BRANCH   8  10
ATOM      9  C   LIG    1       -0.019   1.526   0.010  0.00  0.00    +0.000 C 
ATOM     10  C   LIG    1        0.002  -0.004   0.002  0.00  0.00    -0.010 C 
ENDBRANCH   8  10
ENDBRANCH   7   8
ENDBRANCH   1   7
BRANCH   3  11
ATOM     11  C   LIG    1        4.978  -3.452   3.574  0.00  0.00    +0.070 C 
BRANCH  11  12
ATOM     12  C   LIG    1        5.700  -2.173   4.002  0.00  0.00    +0.010 C 
BRANCH  12  13
ATOM     13  C   LIG    1        7.210  -2.420   4.012  0.00  0.00    -0.010 C 
ATOM     14  C   LIG    1        7.933  -1.141   4.441  0.00  0.00    +0.000 C 
ENDBRANCH  12  13
ENDBRANCH  11  12
ENDBRANCH   3  11
TORSDOF 6
ENDMDL
MODEL      636
REMARK  Name = ZINC000001691552
REMARK                            x       y       z     vdW  Elec       q    Type
REMARK                         _______ _______ _______ _____ _____    ______ ____
ROOT
ATOM      1  C   LIG    1        0.769  -0.346   1.265  0.00  0.00    -0.140 A 
ATOM      2  C   LIG    1        1.567  -1.473   1.137  0.00  0.00    +0.060 A 
ATOM      3  C   LIG    1        2.186  -1.978   2.267  0.00  0.00    -0.030 A 
ATOM      4  C   LIG    1        1.986  -1.339   3.491  0.00  0.00    +0.160 A 
ATOM      5  N   LIG    1        1.214  -0.261   3.571  0.00  0.00    -0.470 NA
ATOM      6  C   LIG    1        0.619   0.241   2.509  0.00  0.00    +0.250 A 
ENDROOT
BRANCH   4   7
ATOM      7  C   LIG    1        2.640  -1.864   4.707  0.00  0.00    -0.020 C 
ATOM      8  C   LIG    1        1.937  -2.026   5.820  0.00  0.00    -0.070 C 
ATOM      9  C   LIG    1        2.626  -2.451   7.091  0.00  0.00    +0.090 C 
BRANCH   8  10
ATOM     10  C   LIG    1        0.450  -1.784   5.814  0.00  0.00    +0.020 C 
ATOM     11  C   LIG    1        0.127  -0.566   6.682  0.00  0.00    +0.020 C 
ATOM     12  C   LIG    1       -0.270  -3.013   6.373  0.00  0.00    +0.020 C 
ENDBRANCH   8  10
ENDBRANCH   4   7
BRANCH   1  14
ATOM     13  C   LIG    1        0.991   1.270  -0.603  0.00  0.00    +0.020 C 
ATOM     14  C   LIG    1        0.077   0.238   0.060  0.00  0.00    +0.070 C 
ENDBRANCH   1  14
TORSDOF 3
ENDMDL
MODEL      637
REMARK  Name = ZINC000001691774
REMARK                            x       y       z     vdW  Elec       q    Type
REMARK                         _______ _______ _______ _____ _____    ______ ____
ROOT
ATOM      1  C   LIG    1       -0.018   1.502   0.010  0.00  0.00    -0.060 C 
ATOM      2  C   LIG    1        1.100   2.181   0.003  0.00  0.00    -0.060 C 
ATOM      3  C   LIG    1        2.426   1.468  -0.013  0.00  0.00    +0.040 C 
ATOM      4  C   LIG    1        2.608   0.749  -1.351  0.00  0.00    +0.010 C 
ATOM      5  C   LIG    1        3.461  -0.505  -1.144  0.00  0.00    +0.010 C 
ATOM      6  C   LIG    1        2.576  -1.648  -0.643  0.00  0.00    +0.000 C 
ATOM      7  C   LIG    1        2.488  -1.595   0.883  0.00  0.00    +0.000 C 
ATOM      8  C   LIG    1        1.044  -1.852   1.321  0.00  0.00    +0.000 C 
ATOM      9  C   LIG    1        0.293  -0.522   1.412  0.00  0.00    +0.010 C 
ATOM     10  C   LIG    1        0.002  -0.004   0.002  0.00  0.00    +0.040 C 
ENDROOT
TORSDOF 0
ENDMDL
MODEL      638
REMARK  Name = ZINC000001693212
REMARK                            x       y       z     vdW  Elec       q    Type
REMARK                         _______ _______ _______ _____ _____    ______ ____
ROOT
ATOM      1  C   LIG    1       -0.018   1.503   0.010  0.00  0.00    +0.190 C 
ATOM      2  C   LIG    1        0.002  -0.004   0.002  0.00  0.00    +0.140 A 
ATOM      3  N   LIG    1        0.007  -0.726  -1.053  0.00  0.00    -0.470 NA
ATOM      4  C   LIG    1        0.026  -2.068  -0.909  0.00  0.00    +0.080 A 
ATOM      5  C   LIG    1        0.035  -3.040  -1.918  0.00  0.00    +0.100 A 
ATOM      6  C   LIG    1        0.055  -4.395  -1.590  0.00  0.00    -0.050 A 
ATOM      7  C   LIG    1        0.065  -5.400  -2.576  0.00  0.00    +0.030 A 
ATOM      8  C   LIG    1        0.085  -6.706  -2.200  0.00  0.00    +0.020 A 
ATOM      9  C   LIG    1        0.095  -7.083  -0.859  0.00  0.00    +0.020 A 
ATOM     10  C   LIG    1        0.086  -6.161   0.141  0.00  0.00    +0.030 A 
ATOM     11  C   LIG    1        0.066  -4.792  -0.180  0.00  0.00    -0.040 A 
ATOM     12  C   LIG    1        0.057  -3.800   0.805  0.00  0.00    +0.080 A 
ATOM     13  C   LIG    1        0.037  -2.465   0.442  0.00  0.00    -0.160 A 
ATOM     14  S   LIG    1        0.029  -1.012   1.442  0.00  0.00    +0.020 S 
ENDROOT
TORSDOF 0
ENDMDL
MODEL      639
REMARK  Name = ZINC000001699443
REMARK                            x       y       z     vdW  Elec       q    Type
REMARK                         _______ _______ _______ _____ _____    ______ ____
ROOT
ATOM      1  C   LIG    1       -1.239  -2.351   0.042  0.00  0.00    +0.010 C 
ENDROOT
BRANCH   1   2
ATOM      2  C   LIG    1       -2.700  -2.578  -0.353  0.00  0.00    -0.060 C 
ATOM      3  C   LIG    1       -3.022  -1.761  -1.606  0.00  0.00    +0.020 C 
ATOM      4  C   LIG    1       -3.613  -2.136   0.793  0.00  0.00    +0.030 C 
BRANCH   2   5
ATOM      5  C   LIG    1       -2.925  -4.064  -0.641  0.00  0.00    +0.010 C 
ATOM      6  C   LIG    1       -4.386  -4.291  -1.036  0.00  0.00    +0.010 C 
ENDBRANCH   2   5
ENDBRANCH   1   2
BRANCH   1   7
ATOM      7  C   LIG    1       -1.046  -0.893   0.465  0.00  0.00    -0.020 C 
ATOM      8  C   LIG    1       -1.475  -0.724   1.924  0.00  0.00    +0.000 C 
BRANCH   7  10
ATOM      9  C   LIG    1        0.602   0.979   0.622  0.00  0.00    +0.000 C 
ATOM     10  C   LIG    1        0.428  -0.511   0.319  0.00  0.00    +0.000 C 
ENDBRANCH   7  10
ENDBRANCH   1   7
TORSDOF 4
ENDMDL
MODEL      640
REMARK  Name = ZINC000001699565
REMARK                            x       y       z     vdW  Elec       q    Type
REMARK                         _______ _______ _______ _____ _____    ______ ____
ROOT
ATOM      1  C   LIG    1        1.455  -2.521  -2.524  0.00  0.00    +0.010 C 
ENDROOT
BRANCH   1   2
ATOM      2  C   LIG    1        1.476  -4.051  -2.532  0.00  0.00    -0.070 C 
ATOM      3  C   LIG    1        2.216  -4.557  -1.293  0.00  0.00    +0.020 C 
ATOM      4  C   LIG    1        2.192  -4.544  -3.791  0.00  0.00    +0.010 C 
ATOM      5  C   LIG    1        0.041  -4.580  -2.522  0.00  0.00    +0.020 C 
ENDBRANCH   1   2
BRANCH   1   6
ATOM      6  C   LIG    1        0.739  -2.027  -1.265  0.00  0.00    +0.000 C 
BRANCH   6   7
ATOM      7  C   LIG    1        0.718  -0.497  -1.257  0.00  0.00    +0.000 C 
BRANCH   7   9
ATOM      8  C   LIG    1       -0.019   1.526   0.010  0.00  0.00    +0.000 C 
ATOM      9  C   LIG    1        0.002  -0.004   0.002  0.00  0.00    -0.010 C 
ENDBRANCH   7   9
ENDBRANCH   6   7
ENDBRANCH   1   6
TORSDOF 4
ENDMDL
MODEL      641
REMARK  Name = ZINC000001700011
REMARK                            x       y       z     vdW  Elec       q    Type
REMARK                         _______ _______ _______ _____ _____    ______ ____
ROOT
ATOM      1  S   LIG    1        1.527  -4.361   2.463  0.00  0.00    -0.260 S 
ENDROOT
BRANCH   1   2
ATOM      2  C   LIG    1        2.431  -4.766   3.983  0.00  0.00    +0.030 C 
ATOM      3  C   LIG    1        1.575  -4.428   5.229  0.00  0.00    +0.030 C 
ATOM      4  C   LIG    1        2.178  -5.349   6.318  0.00  0.00    +0.020 C 
ATOM      5  C   LIG    1        2.502  -6.658   5.569  0.00  0.00    +0.020 C 
ATOM      6  C   LIG    1        2.663  -6.287   4.085  0.00  0.00    +0.040 C 
ENDBRANCH   1   2
BRANCH   1   7
ATOM      7  C   LIG    1        1.503  -2.548   2.473  0.00  0.00    +0.080 C 
BRANCH   7   8
ATOM      8  C   LIG    1        0.763  -2.041   1.233  0.00  0.00    +0.040 C 
BRANCH   8   9
ATOM      9  C   LIG    1        0.742  -0.511   1.242  0.00  0.00    +0.000 C 
BRANCH   9  11
ATOM     10  C   LIG    1       -0.019   1.526   0.010  0.00  0.00    +0.000 C 
ATOM     11  C   LIG    1        0.002  -0.004   0.002  0.00  0.00    -0.010 C 
ENDBRANCH   9  11
ENDBRANCH   8   9
ENDBRANCH   7   8
ENDBRANCH   1   7
TORSDOF 5
ENDMDL
MODEL      642
REMARK  Name = ZINC000001706058
REMARK                            x       y       z     vdW  Elec       q    Type
REMARK                         _______ _______ _______ _____ _____    ______ ____
ROOT
ATOM      1  C   LIG    1       -0.018   1.503   0.010  0.00  0.00    +0.090 C 
ATOM      2  C   LIG    1        0.002  -0.004   0.002  0.00  0.00    -0.050 A 
ATOM      3  C   LIG    1        0.006  -0.681  -1.198  0.00  0.00    -0.030 A 
ATOM      4  C   LIG    1        0.025  -2.072  -1.214  0.00  0.00    +0.140 A 
ATOM      5  C   LIG    1        0.041  -2.773   0.001  0.00  0.00    -0.110 A 
ATOM      6  C   LIG    1        0.059  -4.206  -0.343  0.00  0.00    -0.100 A 
ATOM      7  C   LIG    1        0.052  -4.280  -1.743  0.00  0.00    +0.140 A 
ATOM      8  C   LIG    1        0.066  -5.527  -2.361  0.00  0.00    -0.020 A 
ATOM      9  C   LIG    1        0.085  -6.674  -1.598  0.00  0.00    +0.050 A 
ATOM     10  C   LIG    1        0.091  -6.600  -0.213  0.00  0.00    -0.020 A 
ATOM     11  C   LIG    1        0.079  -5.374   0.416  0.00  0.00    +0.070 A 
ATOM     12  C   LIG    1        0.038  -2.076   1.208  0.00  0.00    +0.070 A 
ATOM     13  N   LIG    1        0.032  -2.992  -2.248  0.00  0.00    -0.620 N 
ATOM     14  H   LIG    1        0.024  -2.765  -3.191  0.00  0.00    +0.420 HD
ATOM     15  C   LIG    1        0.023  -0.698   1.202  0.00  0.00    -0.020 A 
ENDROOT
TORSDOF 0
ENDMDL
MODEL      643
REMARK  Name = ZINC000001706556
REMARK                            x       y       z     vdW  Elec       q    Type
REMARK                         _______ _______ _______ _____ _____    ______ ____
ROOT
ATOM      1  C   LIG    1       -0.018   1.503   0.010  0.00  0.00    +0.090 C 
ATOM      2  C   LIG    1        0.002  -0.004   0.002  0.00  0.00    -0.080 A 
ATOM      3  C   LIG    1        0.006  -0.688  -1.200  0.00  0.00    +0.000 A 
ATOM      4  C   LIG    1        0.025  -2.071  -1.217  0.00  0.00    +0.010 A 
ATOM      5  C   LIG    1        0.040  -2.778  -0.032  0.00  0.00    +0.010 A 
ATOM      6  C   LIG    1        0.037  -2.094   1.185  0.00  0.00    -0.030 A 
ATOM      7  C   LIG    1        0.023  -0.699   1.194  0.00  0.00    +0.010 A 
ENDROOT
BRANCH   6   8
ATOM      8  C   LIG    1        0.053  -2.845   2.458  0.00  0.00    -0.100 C 
ATOM      9  C   LIG    1        1.041  -2.812   3.335  0.00  0.00    -0.020 C 
ATOM     10  C   LIG    1        0.735  -3.694   4.523  0.00  0.00    +0.050 C 
ATOM     11  C   LIG    1       -0.787  -3.952   4.442  0.00  0.00    +0.010 C 
ATOM     12  C   LIG    1       -1.060  -3.748   2.935  0.00  0.00    +0.060 C 
ENDBRANCH   6   8
TORSDOF 1
ENDMDL
MODEL      644
REMARK  Name = ZINC000001716856
REMARK                            x       y       z     vdW  Elec       q    Type
REMARK                         _______ _______ _______ _____ _____    ______ ____
ROOT
ATOM      1  C   LIG    1       -2.786  -4.148  -0.093  0.00  0.00    +0.000 C 
ENDROOT
BRANCH   1   2
ATOM      2  C   LIG    1       -2.258  -4.377   1.325  0.00  0.00    +0.000 C 
ATOM      3  C   LIG    1       -2.107  -5.878   1.577  0.00  0.00    +0.010 C 
ENDBRANCH   1   2
BRANCH   1   4
ATOM      4  C   LIG    1       -2.811  -2.648  -0.392  0.00  0.00    +0.000 C 
BRANCH   4   5
ATOM      5  C   LIG    1       -1.380  -2.105  -0.400  0.00  0.00    +0.000 C 
BRANCH   5   6
ATOM      6  C   LIG    1       -1.405  -0.605  -0.699  0.00  0.00    +0.000 C 
BRANCH   6   8
ATOM      7  C   LIG    1       -0.000   1.438  -1.006  0.00  0.00    +0.000 C 
ATOM      8  C   LIG    1        0.025  -0.062  -0.707  0.00  0.00    -0.010 C 
ENDBRANCH   6   8
ENDBRANCH   5   6
ENDBRANCH   4   5
ENDBRANCH   1   4
BRANCH   1   9
ATOM      9  C   LIG    1       -4.202  -4.715  -0.207  0.00  0.00    +0.000 C 
BRANCH   9  10
ATOM     10  C   LIG    1       -5.137  -3.943   0.726  0.00  0.00    +0.020 C 
ATOM     11  C   LIG    1       -6.524  -4.588   0.706  0.00  0.00    -0.010 C 
ENDBRANCH   9  10
BRANCH   9  12
ATOM     12  C   LIG    1       -4.692  -4.575  -1.650  0.00  0.00    +0.170 C 
BRANCH  12  13
ATOM     13  O   LIG    1       -3.875  -5.371  -2.510  0.00  0.00    -0.570 OA
ATOM     14  H   LIG    1       -4.080  -5.272  -3.450  0.00  0.00    +0.380 HD
ENDBRANCH  12  13
ENDBRANCH   9  12
ENDBRANCH   1   9
TORSDOF 9
ENDMDL
MODEL      645
REMARK  Name = ZINC000001716859
REMARK                            x       y       z     vdW  Elec       q    Type
REMARK                         _______ _______ _______ _____ _____    ______ ____
ROOT
ATOM      1  C   LIG    1       -2.922  -3.923  -0.086  0.00  0.00    -0.010 C 
ENDROOT
BRANCH   1   2
ATOM      2  C   LIG    1       -2.095  -4.112  -1.360  0.00  0.00    +0.010 C 
ATOM      3  C   LIG    1       -2.845  -3.508  -2.549  0.00  0.00    +0.010 C 
ENDBRANCH   1   2
BRANCH   1   4
ATOM      4  C   LIG    1       -3.071  -2.429   0.209  0.00  0.00    +0.020 C 
BRANCH   4   5
ATOM      5  C   LIG    1       -1.697  -1.831   0.519  0.00  0.00    +0.000 C 
BRANCH   5   6
ATOM      6  C   LIG    1       -1.837  -0.327   0.759  0.00  0.00    +0.000 C 
BRANCH   6   8
ATOM      7  C   LIG    1       -0.604   1.775   1.309  0.00  0.00    +0.000 C 
ATOM      8  C   LIG    1       -0.463   0.271   1.069  0.00  0.00    -0.010 C 
ENDBRANCH   6   8
ENDBRANCH   5   6
ENDBRANCH   4   5
ENDBRANCH   1   4
BRANCH   1   9
ATOM      9  C   LIG    1       -4.307  -4.544  -0.280  0.00  0.00    -0.010 C 
BRANCH   9  10
ATOM     10  C   LIG    1       -5.133  -4.356   0.993  0.00  0.00    +0.000 C 
ATOM     11  C   LIG    1       -6.565  -4.837   0.748  0.00  0.00    +0.010 C 
ENDBRANCH   9  10
BRANCH   9  12
ATOM     12  C   LIG    1       -4.158  -6.038  -0.575  0.00  0.00    +0.170 C 
BRANCH  12  13
ATOM     13  O   LIG    1       -5.436  -6.588  -0.902  0.00  0.00    -0.570 OA
ATOM     14  H   LIG    1       -5.417  -7.535  -1.101  0.00  0.00    +0.370 HD
ENDBRANCH  12  13
ENDBRANCH   9  12
ENDBRANCH   1   9
TORSDOF 9
ENDMDL
MODEL      646
REMARK  Name = ZINC000001716857
REMARK                            x       y       z     vdW  Elec       q    Type
REMARK                         _______ _______ _______ _____ _____    ______ ____
ROOT
ATOM      1  C   LIG    1       -2.946  -4.080   0.068  0.00  0.00    -0.020 C 
ENDROOT
BRANCH   1   2
ATOM      2  C   LIG    1       -2.425  -4.747  -1.206  0.00  0.00    -0.010 C 
ATOM      3  C   LIG    1       -0.914  -4.532  -1.314  0.00  0.00    +0.010 C 
ENDBRANCH   1   2
BRANCH   1   4
ATOM      4  C   LIG    1       -2.763  -2.564  -0.038  0.00  0.00    +0.010 C 
BRANCH   4   5
ATOM      5  C   LIG    1       -3.648  -2.021  -1.161  0.00  0.00    +0.010 C 
BRANCH   5   6
ATOM      6  C   LIG    1       -3.549  -0.495  -1.196  0.00  0.00    -0.010 C 
BRANCH   6   8
ATOM      7  C   LIG    1       -4.336   1.575  -2.354  0.00  0.00    +0.000 C 
ATOM      8  C   LIG    1       -4.434   0.049  -2.319  0.00  0.00    +0.000 C 
ENDBRANCH   6   8
ENDBRANCH   5   6
ENDBRANCH   4   5
ENDBRANCH   1   4
BRANCH   1   9
ATOM      9  C   LIG    1       -4.431  -4.403   0.243  0.00  0.00    -0.010 C 
BRANCH   9  10
ATOM     10  C   LIG    1       -4.629  -5.920   0.216  0.00  0.00    +0.010 C 
ATOM     11  C   LIG    1       -6.125  -6.239   0.266  0.00  0.00    -0.010 C 
ENDBRANCH   9  10
BRANCH   9  12
ATOM     12  C   LIG    1       -4.919  -3.849   1.583  0.00  0.00    +0.170 C 
BRANCH  12  13
ATOM     13  O   LIG    1       -4.886  -2.421   1.549  0.00  0.00    -0.560 OA
ATOM     14  H   LIG    1       -5.183  -2.000   2.368  0.00  0.00    +0.370 HD
ENDBRANCH  12  13
ENDBRANCH   9  12
ENDBRANCH   1   9
TORSDOF 9
ENDMDL
MODEL      647
REMARK  Name = ZINC000001725630
REMARK                            x       y       z     vdW  Elec       q    Type
REMARK                         _______ _______ _______ _____ _____    ______ ____
ROOT
ATOM      1  S   LIG    1       -0.323  -1.596   2.224  0.00  0.00    -0.120 S 
ENDROOT
BRANCH   1   7
ATOM      2  C   LIG    1       -0.019   1.526   0.010  0.00  0.00    +0.040 C 
ATOM      3  C   LIG    1        0.002  -0.004   0.002  0.00  0.00    +0.010 C 
ATOM      4  C   LIG    1        0.767  -0.515  -1.236  0.00  0.00    +0.020 C 
ATOM      5  C   LIG    1        2.204  -0.768  -0.716  0.00  0.00    +0.020 C 
ATOM      6  C   LIG    1        1.959  -1.339   0.703  0.00  0.00    +0.030 C 
ATOM      7  C   LIG    1        0.759  -0.528   1.235  0.00  0.00    +0.030 C 
ENDBRANCH   1   7
BRANCH   1   8
ATOM      8  C   LIG    1        0.679  -1.995   3.617  0.00  0.00    -0.080 A 
ATOM      9  C   LIG    1        1.968  -1.484   3.717  0.00  0.00    -0.010 A 
ATOM     10  C   LIG    1        2.751  -1.798   4.810  0.00  0.00    +0.030 A 
ATOM     11  C   LIG    1        2.254  -2.621   5.805  0.00  0.00    -0.010 A 
ATOM     12  C   LIG    1        0.973  -3.132   5.709  0.00  0.00    +0.030 A 
ATOM     13  C   LIG    1        0.182  -2.816   4.622  0.00  0.00    +0.030 A 
ENDBRANCH   1   8
TORSDOF 2
ENDMDL
MODEL      648
REMARK  Name = ZINC000001727333
REMARK                            x       y       z     vdW  Elec       q    Type
REMARK                         _______ _______ _______ _____ _____    ______ ____
ROOT
ATOM      1  C   LIG    1        0.387  -0.700  -1.630  0.00  0.00    -0.080 A 
ATOM      2  C   LIG    1       -0.128  -0.915  -2.895  0.00  0.00    +0.000 A 
ATOM      3  C   LIG    1        0.723  -1.171  -3.954  0.00  0.00    +0.000 A 
ATOM      4  C   LIG    1        2.089  -1.212  -3.748  0.00  0.00    -0.080 A 
ATOM      5  C   LIG    1        2.604  -0.996  -2.483  0.00  0.00    -0.070 A 
ATOM      6  C   LIG    1        1.753  -0.736  -1.425  0.00  0.00    -0.070 A 
ENDROOT
BRANCH   1   8
ATOM      7  C   LIG    1       -0.695   1.091  -0.299  0.00  0.00    +0.030 C 
ATOM      8  C   LIG    1       -0.542  -0.421  -0.476  0.00  0.00    +0.050 C 
ENDBRANCH   1   8
BRANCH   5   9
ATOM      9  C   LIG    1        4.094  -1.040  -2.258  0.00  0.00    +0.050 C 
ATOM     10  C   LIG    1        4.682   0.358  -2.460  0.00  0.00    +0.030 C 
ENDBRANCH   5   9
BRANCH   4  11
ATOM     11  C   LIG    1        3.018  -1.491  -4.901  0.00  0.00    +0.050 C 
ATOM     12  C   LIG    1        3.347  -2.985  -4.941  0.00  0.00    +0.030 C 
ENDBRANCH   4  11
BRANCH   6  13
ATOM     13  C   LIG    1        2.315  -0.500  -0.046  0.00  0.00    +0.050 C 
ATOM     14  C   LIG    1        2.443  -1.837   0.687  0.00  0.00    +0.030 C 
ENDBRANCH   6  13
TORSDOF 4
ENDMDL
MODEL      649
REMARK  Name = ZINC000001725628
REMARK                            x       y       z     vdW  Elec       q    Type
REMARK                         _______ _______ _______ _____ _____    ______ ____
ROOT
ATOM      1  S   LIG    1        1.346   0.862   2.242  0.00  0.00    -0.100 S 
ENDROOT
BRANCH   1   7
ATOM      2  C   LIG    1       -0.019   1.526   0.010  0.00  0.00    +0.050 C 
ATOM      3  C   LIG    1        0.002  -0.004   0.002  0.00  0.00    +0.010 C 
ATOM      4  C   LIG    1        0.767  -0.515  -1.236  0.00  0.00    +0.020 C 
ATOM      5  C   LIG    1        1.528  -1.763  -0.723  0.00  0.00    +0.020 C 
ATOM      6  C   LIG    1        1.959  -1.339   0.703  0.00  0.00    +0.030 C 
ATOM      7  C   LIG    1        0.759  -0.528   1.235  0.00  0.00    +0.010 C 
ENDBRANCH   1   7
BRANCH   1   8
ATOM      8  C   LIG    1        2.077   0.064   3.632  0.00  0.00    -0.100 A 
ATOM      9  C   LIG    1        2.087  -1.323   3.713  0.00  0.00    -0.010 A 
ATOM     10  C   LIG    1        2.661  -1.946   4.804  0.00  0.00    +0.020 A 
ATOM     11  C   LIG    1        3.226  -1.190   5.815  0.00  0.00    -0.010 A 
ATOM     12  C   LIG    1        3.217   0.191   5.738  0.00  0.00    +0.030 A 
ATOM     13  C   LIG    1        2.651   0.820   4.648  0.00  0.00    +0.030 A 
ENDBRANCH   1   8
TORSDOF 2
ENDMDL
MODEL      650
REMARK  Name = ZINC000001747475
REMARK                            x       y       z     vdW  Elec       q    Type
REMARK                         _______ _______ _______ _____ _____    ______ ____
ROOT
ATOM      1  C   LIG    1       -0.018   1.503   0.010  0.00  0.00    +0.100 C 
ATOM      2  C   LIG    1        0.002  -0.004   0.002  0.00  0.00    -0.090 A 
ATOM      3  C   LIG    1        0.006  -0.689  -1.198  0.00  0.00    +0.000 A 
ATOM      4  C   LIG    1        0.024  -2.071  -1.204  0.00  0.00    +0.020 A 
ATOM      5  C   LIG    1        0.039  -2.772  -0.010  0.00  0.00    -0.090 A 
ATOM      6  C   LIG    1        0.035  -2.086   1.191  0.00  0.00    -0.090 A 
ATOM      7  C   LIG    1        0.055  -3.070   2.341  0.00  0.00    +0.030 C 
ATOM      8  C   LIG    1        0.510  -4.408   1.722  0.00  0.00    +0.040 C 
ATOM      9  C   LIG    1        1.047  -2.614   3.413  0.00  0.00    +0.040 C 
ATOM     10  C   LIG    1        0.061  -4.262   0.252  0.00  0.00    -0.030 C 
ATOM     11  C   LIG    1        1.060  -4.951  -0.679  0.00  0.00    +0.040 C 
ATOM     12  C   LIG    1       -1.337  -4.855   0.064  0.00  0.00    +0.040 C 
ATOM     13  C   LIG    1        0.023  -0.702   1.194  0.00  0.00    +0.010 A 
ENDROOT
TORSDOF 0
ENDMDL
MODEL      651
REMARK  Name = ZINC000001747478
REMARK                            x       y       z     vdW  Elec       q    Type
REMARK                         _______ _______ _______ _____ _____    ______ ____
ROOT
ATOM      1  C   LIG    1        0.521   1.502  -0.028  0.00  0.00    +0.090 C 
ATOM      2  C   LIG    1        0.465  -0.004   0.002  0.00  0.00    -0.090 C 
ATOM      3  C   LIG    1        0.647  -0.780  -1.052  0.00  0.00    -0.010 C 
ATOM      4  C   LIG    1        0.513  -2.218  -0.610  0.00  0.00    +0.000 C 
ATOM      5  C   LIG    1        0.224  -2.159   0.870  0.00  0.00    -0.090 A 
ATOM      6  C   LIG    1        0.004  -3.123   1.826  0.00  0.00    -0.060 A 
ATOM      7  C   LIG    1       -0.242  -2.753   3.137  0.00  0.00    +0.000 A 
ATOM      8  C   LIG    1       -0.268  -1.415   3.488  0.00  0.00    -0.080 A 
ATOM      9  C   LIG    1       -0.048  -0.441   2.536  0.00  0.00    +0.010 A 
ATOM     10  C   LIG    1       -0.537  -1.020   4.917  0.00  0.00    +0.100 C 
ATOM     11  C   LIG    1        0.031  -4.581   1.446  0.00  0.00    +0.090 C 
ATOM     12  C   LIG    1        1.817  -2.975  -0.867  0.00  0.00    +0.050 C 
ATOM     13  C   LIG    1       -0.645  -2.894  -1.349  0.00  0.00    +0.050 C 
ATOM     14  C   LIG    1        0.207  -0.805   1.212  0.00  0.00    -0.060 A 
ENDROOT
TORSDOF 0
ENDMDL
MODEL      652
REMARK  Name = ZINC000001765662
REMARK                            x       y       z     vdW  Elec       q    Type
REMARK                         _______ _______ _______ _____ _____    ______ ____
ROOT
ATOM      1  C   LIG    1        0.739  -2.027  -1.265  0.00  0.00    -0.030 C 
ATOM      2  C   LIG    1       -0.696  -2.557  -1.254  0.00  0.00    +0.040 C 
ATOM      3  C   LIG    1        1.479  -2.534  -0.026  0.00  0.00    +0.040 C 
ENDROOT
BRANCH   1   4
ATOM      4  C   LIG    1        1.444  -2.513  -2.505  0.00  0.00    -0.070 A 
ATOM      5  C   LIG    1        1.954  -1.603  -3.412  0.00  0.00    +0.010 A 
ATOM      6  C   LIG    1        2.601  -2.049  -4.550  0.00  0.00    +0.000 A 
ATOM      7  C   LIG    1        2.739  -3.405  -4.779  0.00  0.00    -0.010 A 
ATOM      8  C   LIG    1        2.230  -4.315  -3.872  0.00  0.00    +0.000 A 
ATOM      9  C   LIG    1        1.587  -3.869  -2.732  0.00  0.00    +0.000 A 
ENDBRANCH   1   4
BRANCH   1  10
ATOM     10  C   LIG    1        0.718  -0.497  -1.257  0.00  0.00    +0.030 C 
BRANCH  10  12
ATOM     11  C   LIG    1       -0.019   1.526   0.010  0.00  0.00    +0.000 C 
ATOM     12  C   LIG    1        0.002  -0.004   0.002  0.00  0.00    -0.010 C 
ENDBRANCH  10  12
ENDBRANCH   1  10
TORSDOF 3
ENDMDL
MODEL      653
REMARK  Name = ZINC000001845632
REMARK                            x       y       z     vdW  Elec       q    Type
REMARK                         _______ _______ _______ _____ _____    ______ ____
ROOT
ATOM      1  O   LIG    1        0.051  -2.775   2.359  0.00  0.00    -0.310 OA
ENDROOT
BRANCH   1   7
ATOM      2  C   LIG    1       -0.018   1.503   0.010  0.00  0.00    +0.090 C 
ATOM      3  C   LIG    1        0.002  -0.004   0.002  0.00  0.00    -0.050 A 
ATOM      4  C   LIG    1        0.006  -0.688  -1.199  0.00  0.00    -0.040 A 
ATOM      5  C   LIG    1        0.024  -2.071  -1.210  0.00  0.00    +0.050 A 
ATOM      6  C   LIG    1        0.040  -2.772  -0.020  0.00  0.00    -0.090 A 
ATOM      7  C   LIG    1        0.036  -2.088   1.187  0.00  0.00    +0.130 A 
ATOM      8  C   LIG    1        0.023  -0.701   1.195  0.00  0.00    -0.020 A 
ENDBRANCH   1   7
BRANCH   1   9
ATOM      9  C   LIG    1        0.071  -4.202   2.274  0.00  0.00    +0.240 C 
BRANCH   9  10
ATOM     10  C   LIG    1        0.086  -4.787   3.663  0.00  0.00    -0.100 A 
ATOM     11  C   LIG    1        1.289  -5.034   4.296  0.00  0.00    +0.020 A 
ATOM     12  C   LIG    1        1.303  -5.571   5.569  0.00  0.00    +0.010 A 
ATOM     13  C   LIG    1        0.113  -5.861   6.210  0.00  0.00    +0.020 A 
ATOM     14  C   LIG    1       -1.091  -5.614   5.577  0.00  0.00    +0.010 A 
ATOM     15  C   LIG    1       -1.105  -5.072   4.305  0.00  0.00    +0.020 A 
ENDBRANCH   9  10
ENDBRANCH   1   9
TORSDOF 3
ENDMDL
MODEL      654
REMARK  Name = ZINC000001855981
REMARK                            x       y       z     vdW  Elec       q    Type
REMARK                         _______ _______ _______ _____ _____    ______ ____
ROOT
ATOM      1  C   LIG    1        1.450  -2.376  -2.509  0.00  0.00    -0.020 C 
ENDROOT
BRANCH   1   2
ATOM      2  C   LIG    1        1.172  -3.874  -2.368  0.00  0.00    +0.000 C 
ATOM      3  C   LIG    1       -0.320  -4.138  -2.577  0.00  0.00    +0.000 C 
ENDBRANCH   1   2
BRANCH   1   4
ATOM      4  C   LIG    1        2.957  -2.127  -2.423  0.00  0.00    +0.000 C 
ATOM      5  C   LIG    1        3.650  -2.765  -3.629  0.00  0.00    +0.000 C 
ENDBRANCH   1   4
BRANCH   1   6
ATOM      6  C   LIG    1        0.742  -1.618  -1.384  0.00  0.00    +0.000 C 
BRANCH   6   7
ATOM      7  C   LIG    1        0.916  -0.113  -1.595  0.00  0.00    +0.000 C 
BRANCH   7   9
ATOM      8  C   LIG    1        0.382   2.150  -0.682  0.00  0.00    +0.000 C 
ATOM      9  C   LIG    1        0.208   0.645  -0.470  0.00  0.00    -0.010 C 
ENDBRANCH   7   9
ENDBRANCH   6   7
ENDBRANCH   1   6
TORSDOF 5
ENDMDL
MODEL      655
REMARK  Name = ZINC000002002677
REMARK                            x       y       z     vdW  Elec       q    Type
REMARK                         _______ _______ _______ _____ _____    ______ ____
ROOT
ATOM      1  C   LIG    1        0.043   1.310  -0.194  0.00  0.00    +0.090 C 
ATOM      2  C   LIG    1        0.151  -0.192  -0.146  0.00  0.00    -0.090 A 
ATOM      3  C   LIG    1        0.321  -0.910  -1.315  0.00  0.00    +0.000 A 
ATOM      4  C   LIG    1        0.420  -2.289  -1.270  0.00  0.00    +0.000 A 
ATOM      5  C   LIG    1        0.349  -2.948  -0.058  0.00  0.00    -0.090 A 
ATOM      6  C   LIG    1        0.179  -2.229   1.111  0.00  0.00    -0.070 A 
ATOM      7  C   LIG    1        0.456  -4.451  -0.010  0.00  0.00    +0.090 C 
ATOM      8  C   LIG    1        0.084  -0.851   1.067  0.00  0.00    +0.010 A 
ENDROOT
BRANCH   6   9
ATOM      9  C   LIG    1        0.102  -2.949   2.433  0.00  0.00    +0.060 C 
BRANCH   9  10
ATOM     10  C   LIG    1       -1.321  -3.468   2.649  0.00  0.00    -0.020 C 
ATOM     11  C   LIG    1       -2.281  -2.285   2.781  0.00  0.00    +0.010 C 
ATOM     12  C   LIG    1       -1.369  -4.309   3.926  0.00  0.00    +0.020 C 
ENDBRANCH   9  10
ENDBRANCH   6   9
TORSDOF 2
ENDMDL
MODEL      656
REMARK  Name = ZINC000002034080
REMARK                            x       y       z     vdW  Elec       q    Type
REMARK                         _______ _______ _______ _____ _____    ______ ____
ROOT
ATOM      1  C   LIG    1       -0.018   1.503   0.010  0.00  0.00    +0.110 C 
ATOM      2  C   LIG    1        0.002  -0.004   0.002  0.00  0.00    -0.060 A 
ATOM      3  C   LIG    1        0.006  -0.688  -1.198  0.00  0.00    +0.010 A 
ATOM      4  C   LIG    1        0.025  -2.075  -1.205  0.00  0.00    +0.120 A 
ATOM      5  C   LIG    1        0.041  -2.773  -0.007  0.00  0.00    -0.090 A 
ATOM      6  C   LIG    1        0.037  -2.085   1.192  0.00  0.00    +0.050 A 
ATOM      7  C   LIG    1        0.023  -0.702   1.197  0.00  0.00    -0.040 A 
ATOM      8 CL   LIG    1        0.018   0.160   2.704  0.00  0.00    -0.060 Cl
ENDROOT
BRANCH   5   9
ATOM      9  C   LIG    1        0.062  -4.279  -0.012  0.00  0.00    -0.020 C 
ATOM     10  C   LIG    1        1.315  -4.769  -0.740  0.00  0.00    +0.040 C 
ATOM     11  C   LIG    1       -1.183  -4.805  -0.729  0.00  0.00    +0.040 C 
ATOM     12  C   LIG    1        0.076  -4.794   1.429  0.00  0.00    +0.030 C 
ENDBRANCH   5   9
BRANCH   4  13
ATOM     13  O   LIG    1        0.029  -2.749  -2.385  0.00  0.00    -0.490 OA
ATOM     14  H   LIG    1        0.914  -2.932  -2.731  0.00  0.00    +0.390 HD
ENDBRANCH   4  13
TORSDOF 2
ENDMDL
MODEL      657
REMARK  Name = ZINC000002029799
REMARK                            x       y       z     vdW  Elec       q    Type
REMARK                         _______ _______ _______ _____ _____    ______ ____
ROOT
ATOM      1  C   LIG    1       -4.263  -4.652   0.018  0.00  0.00    +0.200 C 
ENDROOT
BRANCH   1   2
ATOM      2  O   LIG    1       -4.918  -4.277  -1.195  0.00  0.00    -0.560 OA
ATOM      3  H   LIG    1       -4.494  -4.619  -1.994  0.00  0.00    +0.370 HD
ENDBRANCH   1   2
BRANCH   1   4
ATOM      4  C   LIG    1       -2.827  -4.123   0.007  0.00  0.00    -0.020 C 
BRANCH   4   5
ATOM      5  C   LIG    1       -2.848  -2.593   0.015  0.00  0.00    +0.010 C 
BRANCH   5   6
ATOM      6  C   LIG    1       -1.413  -2.063   0.004  0.00  0.00    +0.000 C 
BRANCH   6   7
ATOM      7  C   LIG    1       -1.433  -0.534   0.013  0.00  0.00    +0.000 C 
BRANCH   7   9
ATOM      8  C   LIG    1       -0.019   1.526   0.010  0.00  0.00    +0.000 C 
ATOM      9  C   LIG    1        0.002  -0.004   0.002  0.00  0.00    -0.010 C 
ENDBRANCH   7   9
ENDBRANCH   6   7
ENDBRANCH   5   6
ENDBRANCH   4   5
ENDBRANCH   1   4
BRANCH   1  10
ATOM     10  C   LIG    1       -4.242  -6.178   0.135  0.00  0.00    -0.020 C 
BRANCH  10  11
ATOM     11  C   LIG    1       -5.675  -6.698   0.271  0.00  0.00    +0.010 C 
BRANCH  11  12
ATOM     12  C   LIG    1       -5.655  -8.223   0.389  0.00  0.00    +0.000 C 
BRANCH  12  13
ATOM     13  C   LIG    1       -7.088  -8.743   0.525  0.00  0.00    -0.010 C 
ATOM     14  C   LIG    1       -7.067 -10.268   0.642  0.00  0.00    +0.000 C 
ENDBRANCH  12  13
ENDBRANCH  11  12
ENDBRANCH  10  11
ENDBRANCH   1  10
TORSDOF 10
ENDMDL
MODEL      658
REMARK  Name = ZINC000002032394
REMARK                            x       y       z     vdW  Elec       q    Type
REMARK                         _______ _______ _______ _____ _____    ______ ____
ROOT
ATOM      1  C   LIG    1        2.210  -0.501  -2.353  0.00  0.00    -0.080 C 
ATOM      2  C   LIG    1        3.350  -1.184  -2.332  0.00  0.00    -0.110 C 
ENDROOT
BRANCH   1   4
ATOM      3  C   LIG    1        1.704  -0.095  -0.015  0.00  0.00    -0.040 C 
ATOM      4  C   LIG    1        1.302  -0.551  -1.197  0.00  0.00    -0.080 C 
BRANCH   3   6
ATOM      5  C   LIG    1        1.634  -0.935   2.317  0.00  0.00    +0.010 C 
ATOM      6  C   LIG    1        0.828  -0.271   1.198  0.00  0.00    +0.040 C 
ENDBRANCH   3   6
BRANCH   4   7
ATOM      7  C   LIG    1       -0.085  -1.119  -1.353  0.00  0.00    +0.050 C 
ATOM      8  C   LIG    1       -0.032  -2.642  -1.209  0.00  0.00    +0.020 C 
ENDBRANCH   4   7
ENDBRANCH   1   4
BRANCH   2   9
ATOM      9  C   LIG    1        3.681  -2.062  -1.153  0.00  0.00    +0.050 C 
ATOM     10  C   LIG    1        3.280  -3.505  -1.464  0.00  0.00    +0.020 C 
ENDBRANCH   2   9
BRANCH   1  11
ATOM     11  C   LIG    1        1.849   0.325  -3.560  0.00  0.00    +0.050 C 
ATOM     12  C   LIG    1        1.025  -0.524  -4.531  0.00  0.00    +0.030 C 
ENDBRANCH   1  11
BRANCH   2  13
ATOM     13  C   LIG    1        4.311  -1.080  -3.488  0.00  0.00    +0.220 C 
BRANCH  13  14
ATOM     14  O   LIG    1        4.615  -2.389  -3.974  0.00  0.00    -0.560 OA
ATOM     15  H   LIG    1        5.230  -2.399  -4.720  0.00  0.00    +0.380 HD
ENDBRANCH  13  14
ENDBRANCH   2  13
TORSDOF 7
ENDMDL
MODEL      659
REMARK  Name = ZINC000002034470
REMARK                            x       y       z     vdW  Elec       q    Type
REMARK                         _______ _______ _______ _____ _____    ______ ____
ROOT
ATOM      1  C   LIG    1       -0.018   1.503   0.010  0.00  0.00    +0.120 C 
ATOM      2  C   LIG    1        0.002  -0.004   0.002  0.00  0.00    -0.050 A 
ATOM      3  C   LIG    1        0.006  -0.688  -1.199  0.00  0.00    +0.050 A 
ATOM      4  C   LIG    1        0.025  -2.071  -1.208  0.00  0.00    -0.020 A 
ATOM      5  C   LIG    1        0.041  -2.771  -0.013  0.00  0.00    -0.040 A 
ATOM      6  C   LIG    1        0.037  -2.084   1.189  0.00  0.00    -0.020 A 
ATOM      7 CL   LIG    1        0.057  -2.959   2.688  0.00  0.00    -0.030 Cl
ATOM      8 CL   LIG    1        0.065  -4.506  -0.023  0.00  0.00    -0.030 Cl
ATOM      9 CL   LIG    1        0.030  -2.930  -2.717  0.00  0.00    -0.030 Cl
ATOM     10  C   LIG    1        0.023  -0.701   1.196  0.00  0.00    +0.050 A 
ENDROOT
TORSDOF 0
ENDMDL
MODEL      660
REMARK  Name = ZINC000002038414
REMARK                            x       y       z     vdW  Elec       q    Type
REMARK                         _______ _______ _______ _____ _____    ______ ____
ROOT
ATOM      1  C   LIG    1       -0.018   1.503   0.010  0.00  0.00    +0.090 C 
ATOM      2  C   LIG    1        0.002  -0.004   0.002  0.00  0.00    -0.030 A 
ATOM      3  C   LIG    1        0.006  -0.689  -1.194  0.00  0.00    -0.020 A 
ATOM      4  C   LIG    1        0.025  -2.075  -1.205  0.00  0.00    +0.050 A 
ATOM      5  C   LIG    1        0.040  -2.785  -0.024  0.00  0.00    -0.030 A 
ATOM      6  C   LIG    1        0.037  -2.112   1.194  0.00  0.00    +0.140 A 
ATOM      7  N   LIG    1        0.049  -2.557   2.504  0.00  0.00    -0.620 N 
ATOM      8  H   LIG    1        0.059  -3.489   2.772  0.00  0.00    +0.420 HD
ATOM      9  C   LIG    1        0.036  -1.482   3.375  0.00  0.00    +0.140 A 
ATOM     10  C   LIG    1        0.039  -1.404   4.764  0.00  0.00    -0.020 A 
ATOM     11  C   LIG    1        0.028  -0.173   5.386  0.00  0.00    +0.050 A 
ATOM     12  C   LIG    1        0.015   0.994   4.638  0.00  0.00    -0.020 A 
ATOM     13  C   LIG    1        0.013   0.936   3.261  0.00  0.00    +0.060 A 
ATOM     14  C   LIG    1        0.023  -0.300   2.620  0.00  0.00    -0.100 A 
ATOM     15  C   LIG    1        0.023  -0.709   1.203  0.00  0.00    -0.110 A 
ENDROOT
TORSDOF 0
ENDMDL
MODEL      661
REMARK  Name = ZINC000002038145
REMARK                            x       y       z     vdW  Elec       q    Type
REMARK                         _______ _______ _______ _____ _____    ______ ____
ROOT
ATOM      1  C   LIG    1       -0.760  -2.513  -0.529  0.00  0.00    +0.010 C 
ENDROOT
BRANCH   1   2
ATOM      2  C   LIG    1       -0.368  -1.039  -0.658  0.00  0.00    -0.020 C 
ATOM      3  C   LIG    1       -0.900  -0.263   0.549  0.00  0.00    +0.020 C 
BRANCH   2   5
ATOM      4  C   LIG    1        1.544   0.539  -0.965  0.00  0.00    +0.000 C 
ATOM      5  C   LIG    1        1.156  -0.919  -0.711  0.00  0.00    +0.000 C 
ENDBRANCH   2   5
ENDBRANCH   1   2
BRANCH   1   6
ATOM      6  C   LIG    1       -2.282  -2.644  -0.601  0.00  0.00    +0.040 C 
BRANCH   6   7
ATOM      7  C   LIG    1       -2.668  -4.096  -0.474  0.00  0.00    -0.060 C 
ATOM      8  C   LIG    1       -3.431  -4.653  -1.381  0.00  0.00    -0.140 C 
ATOM      9  C   LIG    1       -3.702  -6.134  -1.332  0.00  0.00    +0.070 C 
ATOM     10  C   LIG    1       -4.039  -3.811  -2.474  0.00  0.00    +0.080 C 
ENDBRANCH   6   7
ENDBRANCH   1   6
TORSDOF 4
ENDMDL
MODEL      662
REMARK  Name = ZINC000002038872
REMARK                            x       y       z     vdW  Elec       q    Type
REMARK                         _______ _______ _______ _____ _____    ______ ____
ROOT
ATOM      1  C   LIG    1       -0.018   1.503   0.010  0.00  0.00    +0.090 C 
ATOM      2  C   LIG    1        0.002  -0.004   0.002  0.00  0.00    -0.090 A 
ATOM      3  C   LIG    1        0.005  -0.668  -1.186  0.00  0.00    +0.020 A 
ATOM      4  C   LIG    1        0.025  -2.073  -1.198  0.00  0.00    -0.050 A 
ATOM      5  C   LIG    1        0.030  -2.793  -2.404  0.00  0.00    -0.070 A 
ATOM      6  C   LIG    1        0.049  -4.154  -2.376  0.00  0.00    +0.000 A 
ATOM      7  C   LIG    1        0.064  -4.847  -1.167  0.00  0.00    -0.080 A 
ATOM      8  C   LIG    1        0.061  -4.183   0.021  0.00  0.00    +0.010 A 
ATOM      9  C   LIG    1        0.085  -6.353  -1.175  0.00  0.00    +0.090 C 
ATOM     10  C   LIG    1        0.014  -2.063  -3.722  0.00  0.00    +0.090 C 
ATOM     11  C   LIG    1        0.041  -2.778   0.032  0.00  0.00    -0.050 A 
ATOM     12  C   LIG    1        0.037  -2.057   1.239  0.00  0.00    +0.020 A 
ATOM     13  C   LIG    1        0.023  -0.697   1.211  0.00  0.00    +0.010 A 
ENDROOT
TORSDOF 0
ENDMDL
MODEL      663
REMARK  Name = ZINC000002039459
REMARK                            x       y       z     vdW  Elec       q    Type
REMARK                         _______ _______ _______ _____ _____    ______ ____
ROOT
ATOM      1  C   LIG    1       -0.018   1.503   0.010  0.00  0.00    +0.090 C 
ATOM      2  C   LIG    1        0.002  -0.004   0.002  0.00  0.00    -0.060 A 
ATOM      3  C   LIG    1       -0.098  -0.689  -1.191  0.00  0.00    +0.010 A 
ATOM      4  C   LIG    1       -0.080  -2.072  -1.204  0.00  0.00    +0.020 A 
ATOM      5  C   LIG    1        0.040  -2.776  -0.019  0.00  0.00    +0.020 A 
ATOM      6  C   LIG    1        0.141  -2.099   1.178  0.00  0.00    -0.090 A 
ATOM      7  C   LIG    1        0.280  -2.577   2.603  0.00  0.00    +0.160 C 
ATOM      8  C   LIG    1        0.338  -1.333   3.456  0.00  0.00    -0.090 A 
ATOM      9  C   LIG    1        0.459  -1.148   4.816  0.00  0.00    +0.030 A 
ATOM     10  C   LIG    1        0.492   0.132   5.342  0.00  0.00    +0.020 A 
ATOM     11  C   LIG    1        0.405   1.228   4.503  0.00  0.00    +0.010 A 
ATOM     12  C   LIG    1        0.284   1.052   3.140  0.00  0.00    +0.030 A 
ATOM     13  C   LIG    1        0.250  -0.236   2.603  0.00  0.00    -0.050 A 
ATOM     14  C   LIG    1        0.128  -0.708   1.202  0.00  0.00    -0.060 A 
ENDROOT
TORSDOF 0
ENDMDL
MODEL      664
REMARK  Name = ZINC000002042178
REMARK                            x       y       z     vdW  Elec       q    Type
REMARK                         _______ _______ _______ _____ _____    ______ ____
ROOT
ATOM      1  C   LIG    1       -0.018   1.503   0.010  0.00  0.00    +0.100 C 
ATOM      2  C   LIG    1        0.002  -0.004   0.002  0.00  0.00    -0.090 A 
ATOM      3  C   LIG    1        0.006  -0.689  -1.198  0.00  0.00    +0.000 A 
ATOM      4  C   LIG    1        0.025  -2.071  -1.204  0.00  0.00    +0.020 A 
ATOM      5  C   LIG    1        0.040  -2.772  -0.010  0.00  0.00    -0.090 A 
ATOM      6  C   LIG    1        0.036  -2.086   1.191  0.00  0.00    -0.090 A 
ATOM      7  C   LIG    1        0.055  -3.070   2.341  0.00  0.00    +0.030 C 
ATOM      8  C   LIG    1       -0.370  -4.420   1.726  0.00  0.00    +0.050 C 
ATOM      9  C   LIG    1       -0.939  -2.641   3.423  0.00  0.00    +0.040 C 
ATOM     10  C   LIG    1        0.062  -4.262   0.252  0.00  0.00    -0.030 C 
ATOM     11  C   LIG    1        1.474  -4.816   0.050  0.00  0.00    +0.040 C 
ATOM     12  C   LIG    1       -0.927  -4.978  -0.670  0.00  0.00    +0.040 C 
ATOM     13  C   LIG    1        0.023  -0.702   1.194  0.00  0.00    +0.010 A 
ENDROOT
TORSDOF 0
ENDMDL
MODEL      665
REMARK  Name = ZINC000002042950
REMARK                            x       y       z     vdW  Elec       q    Type
REMARK                         _______ _______ _______ _____ _____    ______ ____
ROOT
ATOM      1  C   LIG    1       -1.258  -0.363   0.242  0.00  0.00    -0.090 C 
ENDROOT
BRANCH   1   3
ATOM      2  C   LIG    1        1.035  -0.075  -0.707  0.00  0.00    +0.010 C 
ATOM      3  C   LIG    1        0.110   0.287   0.456  0.00  0.00    +0.010 C 
ENDBRANCH   1   3
BRANCH   1   4
ATOM      4  C   LIG    1       -2.216   0.086   1.348  0.00  0.00    +0.010 C 
ATOM      5  C   LIG    1       -1.657  -0.338   2.708  0.00  0.00    +0.020 C 
ENDBRANCH   1   4
BRANCH   1   6
ATOM      6  C   LIG    1       -1.112  -1.885   0.281  0.00  0.00    +0.010 C 
ATOM      7  C   LIG    1       -2.496  -2.533   0.212  0.00  0.00    +0.010 C 
ENDBRANCH   1   6
BRANCH   1   8
ATOM      8  C   LIG    1       -1.817   0.061  -1.119  0.00  0.00    +0.210 C 
BRANCH   8   9
ATOM      9  O   LIG    1       -3.156  -0.418  -1.254  0.00  0.00    -0.550 OA
ATOM     10  H   LIG    1       -3.784  -0.010  -0.641  0.00  0.00    +0.370 HD
ENDBRANCH   8   9
BRANCH   8  11
ATOM     11  C   LIG    1       -1.808   1.587  -1.220  0.00  0.00    +0.000 C 
BRANCH  11  12
ATOM     12  C   LIG    1       -2.254   2.007  -2.623  0.00  0.00    -0.010 C 
ATOM     13  C   LIG    1       -1.213   1.549  -3.647  0.00  0.00    +0.010 C 
ATOM     14  C   LIG    1       -2.390   3.530  -2.679  0.00  0.00    +0.000 C 
ENDBRANCH  11  12
ENDBRANCH   8  11
ENDBRANCH   1   8
TORSDOF 7
ENDMDL
MODEL      666
REMARK  Name = ZINC000002046199
REMARK                            x       y       z     vdW  Elec       q    Type
REMARK                         _______ _______ _______ _____ _____    ______ ____
ROOT
ATOM      1  C   LIG    1       -0.018   1.503   0.010  0.00  0.00    +0.090 C 
ATOM      2  C   LIG    1        0.002  -0.004   0.002  0.00  0.00    -0.090 A 
ATOM      3  C   LIG    1        0.006  -0.689  -1.198  0.00  0.00    +0.000 A 
ATOM      4  C   LIG    1        0.025  -2.071  -1.204  0.00  0.00    +0.010 A 
ATOM      5  C   LIG    1        0.041  -2.772  -0.010  0.00  0.00    -0.100 A 
ATOM      6  C   LIG    1        0.062  -4.262   0.252  0.00  0.00    +0.070 C 
ATOM      7  C   LIG    1        0.511  -4.408   1.722  0.00  0.00    +0.000 C 
ATOM      8  C   LIG    1        0.056  -3.070   2.341  0.00  0.00    +0.080 C 
ATOM      9  C   LIG    1        0.037  -2.086   1.191  0.00  0.00    -0.090 A 
ATOM     10  C   LIG    1        0.023  -0.702   1.194  0.00  0.00    -0.070 A 
ATOM     11  C   LIG    1        0.025   0.046   2.502  0.00  0.00    +0.080 C 
ENDROOT
BRANCH   7  12
ATOM     12  C   LIG    1       -0.193  -5.590   2.391  0.00  0.00    -0.020 C 
ATOM     13  C   LIG    1        0.247  -5.684   3.854  0.00  0.00    +0.020 C 
ATOM     14  C   LIG    1        0.178  -6.883   1.663  0.00  0.00    +0.020 C 
ENDBRANCH   7  12
TORSDOF 1
ENDMDL
MODEL      667
REMARK  Name = ZINC000002046382
REMARK                            x       y       z     vdW  Elec       q    Type
REMARK                         _______ _______ _______ _____ _____    ______ ____
ROOT
ATOM      1  C   LIG    1        1.514  -2.407  -2.538  0.00  0.00    -0.020 C 
ENDROOT
BRANCH   1   2
ATOM      2  C   LIG    1        0.751  -1.891  -3.760  0.00  0.00    +0.000 C 
ATOM      3  C   LIG    1        0.838  -0.364  -3.808  0.00  0.00    +0.010 C 
ENDBRANCH   1   2
BRANCH   1   4
ATOM      4  C   LIG    1        0.813  -1.935  -1.263  0.00  0.00    +0.010 C 
BRANCH   4   5
ATOM      5  C   LIG    1        1.650  -2.330  -0.044  0.00  0.00    +0.000 C 
BRANCH   5   7
ATOM      6  C   LIG    1        1.855  -2.140   2.438  0.00  0.00    +0.000 C 
ATOM      7  C   LIG    1        1.018  -1.745   1.220  0.00  0.00    -0.010 C 
ENDBRANCH   5   7
ENDBRANCH   4   5
ENDBRANCH   1   4
BRANCH   1   8
ATOM      8  C   LIG    1        1.546  -3.936  -2.566  0.00  0.00    +0.030 C 
BRANCH   8   9
ATOM      9  C   LIG    1        2.355  -4.407  -3.776  0.00  0.00    +0.020 C 
BRANCH   9  10
ATOM     10  C   LIG    1        2.388  -5.913  -3.804  0.00  0.00    +0.350 C 
ATOM     11  O   LIG    1        1.822  -6.545  -2.944  0.00  0.00    -0.460 OA
ATOM     12  C   LIG    1        3.126  -6.631  -4.904  0.00  0.00    +0.050 C 
ENDBRANCH   9  10
ENDBRANCH   8   9
ENDBRANCH   1   8
TORSDOF 7
ENDMDL
MODEL      668
REMARK  Name = ZINC000002168586
REMARK                            x       y       z     vdW  Elec       q    Type
REMARK                         _______ _______ _______ _____ _____    ______ ____
ROOT
ATOM      1  C   LIG    1        2.181  -4.537  -3.772  0.00  0.00    -0.050 A 
ATOM      2  C   LIG    1        1.459  -4.764  -4.931  0.00  0.00    +0.000 A 
ATOM      3  C   LIG    1        2.097  -5.209  -6.069  0.00  0.00    +0.060 A 
ATOM      4  C   LIG    1        3.478  -5.430  -6.051  0.00  0.00    -0.200 A 
ATOM      5  C   LIG    1        4.201  -5.198  -4.877  0.00  0.00    +0.070 A 
ATOM      6  C   LIG    1        3.549  -4.748  -3.748  0.00  0.00    +0.000 A 
ENDROOT
BRANCH   4   7
ATOM      7  C   LIG    1        4.167  -5.905  -7.262  0.00  0.00    +0.490 C 
ATOM      8  O   LIG    1        5.364  -6.096  -7.243  0.00  0.00    -0.460 OA
ENDBRANCH   4   7
BRANCH   1   9
ATOM      9  C   LIG    1        1.476  -4.051  -2.532  0.00  0.00    +0.070 C 
BRANCH   9  10
ATOM     10  C   LIG    1        1.455  -2.521  -2.524  0.00  0.00    +0.010 C 
BRANCH  10  11
ATOM     11  C   LIG    1        0.739  -2.027  -1.265  0.00  0.00    +0.000 C 
BRANCH  11  12
ATOM     12  C   LIG    1        0.718  -0.497  -1.257  0.00  0.00    +0.000 C 
BRANCH  12  14
ATOM     13  C   LIG    1       -0.019   1.526   0.010  0.00  0.00    +0.000 C 
ATOM     14  C   LIG    1        0.002  -0.004   0.002  0.00  0.00    -0.010 C 
ENDBRANCH  12  14
ENDBRANCH  11  12
ENDBRANCH  10  11
ENDBRANCH   9  10
ENDBRANCH   1   9
TORSDOF 6
ENDMDL
MODEL      669
REMARK  Name = ZINC000002243599
REMARK                            x       y       z     vdW  Elec       q    Type
REMARK                         _______ _______ _______ _____ _____    ______ ____
ROOT
ATOM      1  C   LIG    1       -0.018   1.503   0.010  0.00  0.00    +0.100 C 
ATOM      2  C   LIG    1        0.002  -0.004   0.002  0.00  0.00    -0.080 A 
ATOM      3  C   LIG    1        0.006  -0.688  -1.199  0.00  0.00    +0.060 A 
ATOM      4  C   LIG    1        0.025  -2.071  -1.207  0.00  0.00    +0.040 A 
ATOM      5  C   LIG    1        0.041  -2.769  -0.013  0.00  0.00    +0.000 A 
ATOM      6  C   LIG    1        0.037  -2.083   1.189  0.00  0.00    -0.170 A 
ATOM      7 CL   LIG    1        0.065  -4.505  -0.023  0.00  0.00    -0.040 Cl
ATOM      8  C   LIG    1        0.023  -0.702   1.196  0.00  0.00    +0.090 A 
ENDROOT
BRANCH   6   9
ATOM      9  C   LIG    1        0.054  -2.843   2.490  0.00  0.00    +0.510 C 
ATOM     10  F   LIG    1        1.208  -3.632   2.554  0.00  0.00    -0.170 F 
ATOM     11  F   LIG    1       -1.076  -3.664   2.566  0.00  0.00    -0.170 F 
ATOM     12  F   LIG    1        0.047  -1.940   3.558  0.00  0.00    -0.170 F 
ENDBRANCH   6   9
TORSDOF 1
ENDMDL
MODEL      670
REMARK  Name = ZINC000002387349
REMARK                            x       y       z     vdW  Elec       q    Type
REMARK                         _______ _______ _______ _____ _____    ______ ____
ROOT
ATOM      1  C   LIG    1       -1.412  -0.526   0.013  0.00  0.00    -0.120 C 
ATOM      2  C   LIG    1       -2.069  -0.865  -1.054  0.00  0.00    -0.040 C 
ATOM      3  C   LIG    1       -3.458  -1.348  -0.735  0.00  0.00    +0.030 C 
ATOM      4  C   LIG    1       -4.482  -0.291  -1.257  0.00  0.00    +0.030 C 
ATOM      5  C   LIG    1       -3.884   1.052  -0.822  0.00  0.00    -0.030 C 
ATOM      6  C   LIG    1       -3.983   1.147   0.489  0.00  0.00    -0.130 C 
ATOM      7  C   LIG    1       -4.654  -0.127   1.018  0.00  0.00    +0.030 C 
ATOM      8  C   LIG    1       -5.631  -0.455  -0.196  0.00  0.00    +0.030 C 
ATOM      9  C   LIG    1       -3.591  -1.272   0.812  0.00  0.00    +0.000 C 
ATOM     10  C   LIG    1       -2.228  -0.722   1.262  0.00  0.00    +0.060 C 
ENDROOT
BRANCH   1  12
ATOM     11  C   LIG    1       -0.019   1.526   0.010  0.00  0.00    +0.010 C 
ATOM     12  C   LIG    1        0.002  -0.004   0.002  0.00  0.00    +0.060 C 
ENDBRANCH   1  12
BRANCH   6  13
ATOM     13  C   LIG    1       -3.515   2.309   1.326  0.00  0.00    +0.070 C 
ATOM     14  C   LIG    1       -4.684   3.264   1.571  0.00  0.00    +0.010 C 
ENDBRANCH   6  13
TORSDOF 2
ENDMDL
MODEL      671
REMARK  Name = ZINC000228974577
REMARK                            x       y       z     vdW  Elec       q    Type
REMARK                         _______ _______ _______ _____ _____    ______ ____
ROOT
ATOM      1  C   LIG    1       -2.827  -4.123   0.007  0.00  0.00    +0.050 C 
ENDROOT
BRANCH   1   2
ATOM      2  C   LIG    1       -4.263  -4.652   0.018  0.00  0.00    +0.170 C 
ATOM      3  C   LIG    1       -4.242  -6.178   0.135  0.00  0.00    +0.050 C 
BRANCH   2   4
ATOM      4  O   LIG    1       -4.929  -4.271  -1.215  0.00  0.00    -0.290 OA
BRANCH   4   5
ATOM      5  C   LIG    1       -6.259  -4.079  -1.156  0.00  0.00    +0.220 C 
ATOM      6  S   LIG    1       -7.034  -4.274   0.229  0.00  0.00    -0.400 S 
ATOM      7  C   LIG    1       -7.018  -3.682  -2.395  0.00  0.00    +0.180 C 
ENDBRANCH   4   5
ENDBRANCH   2   4
ENDBRANCH   1   2
BRANCH   1   8
ATOM      8  C   LIG    1       -2.848  -2.593   0.015  0.00  0.00    +0.000 C 
BRANCH   8   9
ATOM      9  C   LIG    1       -1.413  -2.063   0.004  0.00  0.00    +0.000 C 
BRANCH   9  10
ATOM     10  C   LIG    1       -1.433  -0.534   0.013  0.00  0.00    +0.000 C 
BRANCH  10  12
ATOM     11  C   LIG    1       -0.019   1.526   0.010  0.00  0.00    +0.000 C 
ATOM     12  C   LIG    1        0.002  -0.004   0.002  0.00  0.00    -0.010 C 
ENDBRANCH  10  12
ENDBRANCH   9  10
ENDBRANCH   8   9
ENDBRANCH   1   8
TORSDOF 7
ENDMDL
MODEL      672
REMARK  Name = ZINC000002509722
REMARK                            x       y       z     vdW  Elec       q    Type
REMARK                         _______ _______ _______ _____ _____    ______ ____
ROOT
ATOM      1  C   LIG    1       -0.018   1.503   0.010  0.00  0.00    +0.110 C 
ATOM      2  C   LIG    1        0.002  -0.004   0.002  0.00  0.00    -0.120 C 
ATOM      3  C   LIG    1        0.008  -0.775  -1.072  0.00  0.00    +0.000 C 
ATOM      4  C   LIG    1        0.029  -2.203  -0.701  0.00  0.00    -0.070 A 
ATOM      5  C   LIG    1        0.042  -3.370  -1.490  0.00  0.00    +0.030 A 
ATOM      6  C   LIG    1        0.062  -4.600  -0.919  0.00  0.00    +0.020 A 
ATOM      7  C   LIG    1        0.069  -4.731   0.481  0.00  0.00    -0.050 A 
ATOM      8  C   LIG    1        0.089  -5.995   1.094  0.00  0.00    +0.030 A 
ATOM      9  C   LIG    1        0.096  -6.086   2.452  0.00  0.00    +0.000 A 
ATOM     10  C   LIG    1        0.082  -4.942   3.248  0.00  0.00    +0.000 A 
ATOM     11  C   LIG    1        0.062  -3.701   2.691  0.00  0.00    +0.020 A 
ATOM     12  C   LIG    1        0.056  -3.566   1.291  0.00  0.00    -0.030 A 
ATOM     13  C   LIG    1        0.036  -2.308   0.681  0.00  0.00    -0.100 A 
ATOM     14  C   LIG    1        0.026  -0.898   1.220  0.00  0.00    +0.140 C 
ENDROOT
TORSDOF 0
ENDMDL
MODEL      673
REMARK  Name = ZINC000002507472
REMARK                            x       y       z     vdW  Elec       q    Type
REMARK                         _______ _______ _______ _____ _____    ______ ____
ROOT
ATOM      1  C   LIG    1        1.455  -2.521  -2.524  0.00  0.00    +0.010 C 
ENDROOT
BRANCH   1   2
ATOM      2  C   LIG    1        0.739  -2.027  -1.265  0.00  0.00    +0.000 C 
BRANCH   2   3
ATOM      3  C   LIG    1        0.718  -0.497  -1.257  0.00  0.00    +0.000 C 
BRANCH   3   5
ATOM      4  C   LIG    1       -0.019   1.526   0.010  0.00  0.00    +0.000 C 
ATOM      5  C   LIG    1        0.002  -0.004   0.002  0.00  0.00    -0.010 C 
ENDBRANCH   3   5
ENDBRANCH   2   3
ENDBRANCH   1   2
BRANCH   1   6
ATOM      6  C   LIG    1        1.476  -4.051  -2.532  0.00  0.00    +0.030 C 
BRANCH   6   7
ATOM      7  C   LIG    1        2.192  -4.544  -3.791  0.00  0.00    +0.020 C 
ATOM      8 CL   LIG    1        1.320  -3.947  -5.252  0.00  0.00    -0.180 Cl
ATOM      9  C   LIG    1        2.213  -6.074  -3.800  0.00  0.00    +0.060 C 
ATOM     10  C   LIG    1        3.627  -4.014  -3.802  0.00  0.00    +0.050 C 
ENDBRANCH   6   7
ENDBRANCH   1   6
TORSDOF 5
ENDMDL
MODEL      674
REMARK  Name = ZINC000002525136
REMARK                            x       y       z     vdW  Elec       q    Type
REMARK                         _______ _______ _______ _____ _____    ______ ____
ROOT
ATOM      1  N   LIG    1        0.762  -1.976   1.234  0.00  0.00    -0.630 N 
ENDROOT
BRANCH   1   2
ATOM      2  C   LIG    1       -0.270  -2.692   1.844  0.00  0.00    +0.220 A 
ATOM      3  C   LIG    1       -1.319  -2.016   2.455  0.00  0.00    -0.080 A 
ATOM      4  C   LIG    1       -2.338  -2.727   3.058  0.00  0.00    +0.050 A 
ATOM      5  C   LIG    1       -2.316  -4.110   3.054  0.00  0.00    -0.060 A 
ATOM      6  C   LIG    1       -1.272  -4.785   2.447  0.00  0.00    -0.040 A 
ATOM      7  C   LIG    1       -1.252  -6.292   2.445  0.00  0.00    +0.080 C 
ATOM      8  C   LIG    1       -0.253  -4.081   1.838  0.00  0.00    -0.080 A 
ENDBRANCH   1   2
BRANCH   1   9
ATOM      9  C   LIG    1        0.742  -0.511   1.242  0.00  0.00    +0.270 C 
BRANCH   9  11
ATOM     10  C   LIG    1       -0.019   1.526   0.010  0.00  0.00    +0.020 C 
ATOM     11  C   LIG    1        0.002  -0.004   0.002  0.00  0.00    -0.010 C 
ENDBRANCH   9  11
ENDBRANCH   1   9
BRANCH   1  12
ATOM     12  C   LIG    1        1.864  -2.690   0.585  0.00  0.00    +0.260 C 
BRANCH  12  13
ATOM     13  C   LIG    1        2.981  -2.935   1.601  0.00  0.00    -0.010 C 
ATOM     14  C   LIG    1        4.133  -3.681   0.924  0.00  0.00    +0.020 C 
ENDBRANCH  12  13
ENDBRANCH   1  12
TORSDOF 5
ENDMDL
MODEL      675
REMARK  Name = ZINC000002529008
REMARK                            x       y       z     vdW  Elec       q    Type
REMARK                         _______ _______ _______ _____ _____    ______ ____
ROOT
ATOM      1  C   LIG    1        0.062  -4.255  -0.021  0.00  0.00    -0.130 A 
ATOM      2  C   LIG    1        0.994  -4.946   0.749  0.00  0.00    +0.060 A 
ATOM      3  C   LIG    1        1.009  -6.326   0.738  0.00  0.00    -0.060 A 
ATOM      4  C   LIG    1        0.102  -7.028  -0.035  0.00  0.00    +0.050 A 
ATOM      5  C   LIG    1       -0.828  -6.355  -0.804  0.00  0.00    -0.080 A 
ATOM      6  C   LIG    1       -0.859  -4.968  -0.799  0.00  0.00    +0.230 A 
ENDROOT
BRANCH   1  11
ATOM      7  C   LIG    1       -0.018   1.503   0.010  0.00  0.00    +0.090 C 
ATOM      8  C   LIG    1        0.002  -0.004   0.002  0.00  0.00    -0.090 A 
ATOM      9  C   LIG    1        0.006  -0.686  -1.201  0.00  0.00    +0.010 A 
ATOM     10  C   LIG    1        0.025  -2.066  -1.215  0.00  0.00    -0.010 A 
ATOM     11  C   LIG    1        0.041  -2.772  -0.013  0.00  0.00    -0.030 A 
ATOM     12  C   LIG    1        0.037  -2.079   1.196  0.00  0.00    +0.010 A 
ATOM     13  C   LIG    1        0.023  -0.700   1.198  0.00  0.00    -0.080 A 
ATOM     14  C   LIG    1        0.019   0.051   2.505  0.00  0.00    +0.090 C 
ENDBRANCH   1  11
BRANCH   6  15
ATOM     15  N   LIG    1       -1.797  -4.285  -1.574  0.00  0.00    -0.880 N 
ATOM     16  H   LIG    1       -1.817  -3.316  -1.569  0.00  0.00    +0.400 HD
ATOM     17  H   LIG    1       -2.428  -4.781  -2.119  0.00  0.00    +0.400 HD
ENDBRANCH   6  15
TORSDOF 2
ENDMDL
MODEL      676
REMARK  Name = ZINC000002528339
REMARK                            x       y       z     vdW  Elec       q    Type
REMARK                         _______ _______ _______ _____ _____    ______ ____
ROOT
ATOM      1  C   LIG    1       -2.901  -2.690   0.155  0.00  0.00    -0.010 C 
ENDROOT
BRANCH   1   2
ATOM      2  C   LIG    1       -2.787  -4.209   0.292  0.00  0.00    -0.020 C 
ATOM      3  C   LIG    1       -2.243  -4.800  -1.010  0.00  0.00    +0.010 C 
ATOM      4  C   LIG    1       -4.169  -4.800   0.581  0.00  0.00    +0.010 C 
ENDBRANCH   1   2
BRANCH   1   5
ATOM      5  C   LIG    1       -3.445  -2.099   1.457  0.00  0.00    +0.000 C 
ATOM      6  C   LIG    1       -2.533  -2.498   2.619  0.00  0.00    +0.010 C 
ENDBRANCH   1   5
BRANCH   1   7
ATOM      7  C   LIG    1       -1.519  -2.099  -0.134  0.00  0.00    +0.000 C 
BRANCH   7   8
ATOM      8  C   LIG    1       -1.649  -0.596  -0.385  0.00  0.00    +0.000 C 
BRANCH   8  10
ATOM      9  C   LIG    1       -0.421   1.475  -1.052  0.00  0.00    +0.000 C 
ATOM     10  C   LIG    1       -0.290  -0.028  -0.801  0.00  0.00    -0.010 C 
ENDBRANCH   8  10
ENDBRANCH   7   8
ENDBRANCH   1   7
TORSDOF 5
ENDMDL
MODEL      677
REMARK  Name = ZINC000002558880
REMARK                            x       y       z     vdW  Elec       q    Type
REMARK                         _______ _______ _______ _____ _____    ______ ____
ROOT
ATOM      1  C   LIG    1        0.419   1.400  -0.336  0.00  0.00    +0.090 C 
ATOM      2  C   LIG    1        0.266  -0.096  -0.237  0.00  0.00    -0.080 A 
ATOM      3  C   LIG    1        0.045  -0.842  -1.393  0.00  0.00    +0.010 A 
ATOM      4  C   LIG    1       -0.099  -2.194  -1.338  0.00  0.00    +0.020 A 
ATOM      5  C   LIG    1       -0.022  -2.852  -0.098  0.00  0.00    -0.050 A 
ATOM      6  C   LIG    1        0.204  -2.093   1.078  0.00  0.00    -0.050 A 
ATOM      7  C   LIG    1        0.281  -2.751   2.317  0.00  0.00    +0.020 A 
ATOM      8  C   LIG    1        0.139  -4.103   2.372  0.00  0.00    +0.010 A 
ATOM      9  C   LIG    1       -0.084  -4.849   1.216  0.00  0.00    -0.090 A 
ATOM     10  C   LIG    1       -0.237  -6.345   1.315  0.00  0.00    +0.090 C 
ATOM     11  C   LIG    1       -0.164  -4.247  -0.002  0.00  0.00    -0.080 A 
ATOM     12  C   LIG    1       -0.405  -5.071  -1.240  0.00  0.00    +0.090 C 
ATOM     13  C   LIG    1        0.352  -0.699   0.981  0.00  0.00    +0.020 A 
ENDROOT
TORSDOF 0
ENDMDL
MODEL      678
REMARK  Name = ZINC000002558905
REMARK                            x       y       z     vdW  Elec       q    Type
REMARK                         _______ _______ _______ _____ _____    ______ ____
ROOT
ATOM      1  C   LIG    1       -0.018   1.503   0.010  0.00  0.00    +0.140 C 
ATOM      2  C   LIG    1        0.002  -0.004   0.002  0.00  0.00    -0.160 A 
ATOM      3  C   LIG    1       -1.077  -0.761   0.003  0.00  0.00    +0.010 A 
ATOM      4  C   LIG    1       -0.820  -2.193  -0.006  0.00  0.00    -0.080 A 
ATOM      5  C   LIG    1       -1.736  -3.266  -0.008  0.00  0.00    +0.050 A 
ATOM      6  C   LIG    1       -1.291  -4.553  -0.017  0.00  0.00    +0.010 A 
ATOM      7  C   LIG    1        0.069  -4.830  -0.024  0.00  0.00    -0.070 A 
ATOM      8  C   LIG    1        0.984  -3.804  -0.023  0.00  0.00    +0.040 A 
ATOM      9  C   LIG    1        0.544  -6.260  -0.034  0.00  0.00    +0.090 C 
ATOM     10  C   LIG    1        0.549  -2.475  -0.014  0.00  0.00    -0.140 A 
ATOM     11  S   LIG    1        1.464  -0.972  -0.018  0.00  0.00    +0.080 S 
ENDROOT
TORSDOF 0
ENDMDL
MODEL      679
REMARK  Name = ZINC000002558906
REMARK                            x       y       z     vdW  Elec       q    Type
REMARK                         _______ _______ _______ _____ _____    ______ ____
ROOT
ATOM      1  C   LIG    1       -0.018   1.503   0.010  0.00  0.00    +0.140 C 
ATOM      2  C   LIG    1        0.002  -0.004   0.002  0.00  0.00    -0.150 A 
ATOM      3  C   LIG    1       -1.077  -0.761   0.003  0.00  0.00    +0.010 A 
ATOM      4  C   LIG    1       -0.820  -2.193  -0.006  0.00  0.00    -0.070 A 
ATOM      5  C   LIG    1       -1.736  -3.266  -0.008  0.00  0.00    +0.050 A 
ATOM      6  C   LIG    1       -1.291  -4.553  -0.017  0.00  0.00    -0.080 A 
ATOM      7  C   LIG    1        0.069  -4.830  -0.025  0.00  0.00    +0.030 A 
ATOM      8  C   LIG    1        0.984  -3.804  -0.024  0.00  0.00    +0.050 A 
ATOM      9  C   LIG    1       -2.284  -5.686  -0.018  0.00  0.00    +0.090 C 
ATOM     10  C   LIG    1        0.549  -2.475  -0.014  0.00  0.00    -0.150 A 
ATOM     11  S   LIG    1        1.464  -0.972  -0.018  0.00  0.00    +0.080 S 
ENDROOT
TORSDOF 0
ENDMDL
MODEL      680
REMARK  Name = ZINC000002558907
REMARK                            x       y       z     vdW  Elec       q    Type
REMARK                         _______ _______ _______ _____ _____    ______ ____
ROOT
ATOM      1  C   LIG    1       -0.018   1.503   0.010  0.00  0.00    +0.140 C 
ATOM      2  C   LIG    1        0.002  -0.004   0.002  0.00  0.00    -0.160 A 
ATOM      3  C   LIG    1       -1.077  -0.761   0.003  0.00  0.00    +0.010 A 
ATOM      4  C   LIG    1       -0.820  -2.193  -0.006  0.00  0.00    -0.060 A 
ATOM      5  C   LIG    1       -1.736  -3.266  -0.008  0.00  0.00    +0.040 A 
ATOM      6  C   LIG    1       -1.291  -4.553  -0.017  0.00  0.00    -0.080 A 
ATOM      7  C   LIG    1        0.069  -4.830  -0.025  0.00  0.00    +0.020 A 
ATOM      8  C   LIG    1        0.984  -3.804  -0.024  0.00  0.00    -0.050 A 
ATOM      9  C   LIG    1        2.459  -4.112  -0.034  0.00  0.00    +0.100 C 
ATOM     10  C   LIG    1       -2.284  -5.686  -0.018  0.00  0.00    +0.090 C 
ATOM     11  C   LIG    1        0.549  -2.475  -0.014  0.00  0.00    -0.150 A 
ATOM     12  S   LIG    1        1.464  -0.972  -0.018  0.00  0.00    +0.080 S 
ENDROOT
TORSDOF 0
ENDMDL
MODEL      681
REMARK  Name = ZINC000002558903
REMARK                            x       y       z     vdW  Elec       q    Type
REMARK                         _______ _______ _______ _____ _____    ______ ____
ROOT
ATOM      1  C   LIG    1       -0.018   1.503   0.010  0.00  0.00    +0.090 C 
ATOM      2  C   LIG    1        0.002  -0.004   0.002  0.00  0.00    -0.080 A 
ATOM      3  C   LIG    1        0.006  -0.688  -1.200  0.00  0.00    +0.010 A 
ATOM      4  C   LIG    1        0.025  -2.067  -1.215  0.00  0.00    +0.030 A 
ATOM      5  C   LIG    1        0.041  -2.777  -0.013  0.00  0.00    -0.070 A 
ATOM      6  C   LIG    1        0.037  -2.080   1.192  0.00  0.00    -0.090 A 
ATOM      7  C   LIG    1        0.056  -3.097   2.306  0.00  0.00    +0.160 C 
ATOM      8  C   LIG    1        0.072  -4.449   1.636  0.00  0.00    -0.090 A 
ATOM      9  C   LIG    1        0.092  -5.732   2.140  0.00  0.00    -0.070 A 
ATOM     10  C   LIG    1        0.103  -6.815   1.279  0.00  0.00    +0.010 A 
ATOM     11  C   LIG    1        0.093  -6.613  -0.089  0.00  0.00    +0.010 A 
ATOM     12  C   LIG    1        0.073  -5.333  -0.603  0.00  0.00    +0.020 A 
ATOM     13  C   LIG    1        0.102  -5.955   3.631  0.00  0.00    +0.090 C 
ATOM     14  C   LIG    1        0.062  -4.236   0.260  0.00  0.00    -0.050 A 
ATOM     15  C   LIG    1        0.023  -0.701   1.197  0.00  0.00    +0.030 A 
ENDROOT
TORSDOF 0
ENDMDL
MODEL      682
REMARK  Name = ZINC000002564059
REMARK                            x       y       z     vdW  Elec       q    Type
REMARK                         _______ _______ _______ _____ _____    ______ ____
ROOT
ATOM      1  C   LIG    1        0.763  -2.041   1.233  0.00  0.00    -0.070 C 
ATOM      2  C   LIG    1        1.479  -2.534  -0.026  0.00  0.00    +0.020 C 
ATOM      3  C   LIG    1       -0.673  -2.570   1.244  0.00  0.00    +0.020 C 
ENDROOT
BRANCH   1   4
ATOM      4  C   LIG    1        0.742  -0.511   1.242  0.00  0.00    +0.010 C 
BRANCH   4   6
ATOM      5  C   LIG    1       -0.019   1.526   0.010  0.00  0.00    +0.000 C 
ATOM      6  C   LIG    1        0.002  -0.004   0.002  0.00  0.00    -0.010 C 
ENDBRANCH   4   6
ENDBRANCH   1   4
BRANCH   1   7
ATOM      7  C   LIG    1        1.503  -2.548   2.473  0.00  0.00    +0.010 C 
BRANCH   7   8
ATOM      8  C   LIG    1        1.524  -4.077   2.464  0.00  0.00    -0.010 C 
ATOM      9  C   LIG    1        2.264  -4.584   3.704  0.00  0.00    +0.000 C 
ENDBRANCH   7   8
ENDBRANCH   1   7
TORSDOF 4
ENDMDL
MODEL      683
REMARK  Name = ZINC000002564104
REMARK                            x       y       z     vdW  Elec       q    Type
REMARK                         _______ _______ _______ _____ _____    ______ ____
ROOT
ATOM      1  C   LIG    1        1.503  -2.548   2.473  0.00  0.00    +0.010 C 
ENDROOT
BRANCH   1   2
ATOM      2  C   LIG    1        1.524  -4.077   2.464  0.00  0.00    -0.020 C 
ATOM      3  C   LIG    1        0.095  -4.608   2.601  0.00  0.00    +0.020 C 
BRANCH   2   4
ATOM      4  C   LIG    1        2.369  -4.582   3.635  0.00  0.00    -0.020 C 
ATOM      5  C   LIG    1        3.798  -4.052   3.499  0.00  0.00    +0.010 C 
ATOM      6  C   LIG    1        2.390  -6.112   3.627  0.00  0.00    +0.010 C 
ENDBRANCH   2   4
ENDBRANCH   1   2
BRANCH   1   7
ATOM      7  C   LIG    1        0.763  -2.041   1.233  0.00  0.00    +0.000 C 
BRANCH   7   8
ATOM      8  C   LIG    1        0.742  -0.511   1.242  0.00  0.00    +0.000 C 
BRANCH   8  10
ATOM      9  C   LIG    1       -0.019   1.526   0.010  0.00  0.00    +0.000 C 
ATOM     10  C   LIG    1        0.002  -0.004   0.002  0.00  0.00    -0.010 C 
ENDBRANCH   8  10
ENDBRANCH   7   8
ENDBRANCH   1   7
TORSDOF 5
ENDMDL
MODEL      684
REMARK  Name = ZINC000002564100
REMARK                            x       y       z     vdW  Elec       q    Type
REMARK                         _______ _______ _______ _____ _____    ______ ____
ROOT
ATOM      1  C   LIG    1        1.367  -2.645  -2.523  0.00  0.00    -0.050 C 
ATOM      2  C   LIG    1        2.521  -3.252  -2.399  0.00  0.00    -0.120 C 
ENDROOT
BRANCH   2   3
ATOM      3  C   LIG    1        3.379  -3.493  -3.614  0.00  0.00    +0.050 C 
ATOM      4  C   LIG    1        4.402  -2.363  -3.748  0.00  0.00    +0.010 C 
ENDBRANCH   2   3
BRANCH   2   5
ATOM      5  C   LIG    1        2.989  -3.711  -1.042  0.00  0.00    +0.050 C 
ATOM      6  C   LIG    1        2.548  -5.157  -0.812  0.00  0.00    +0.020 C 
ENDBRANCH   2   5
BRANCH   1   7
ATOM      7  C   LIG    1        0.442  -2.535  -1.338  0.00  0.00    +0.040 C 
BRANCH   7   8
ATOM      8  C   LIG    1        0.209  -1.060  -1.007  0.00  0.00    +0.000 C 
BRANCH   8  10
ATOM      9  C   LIG    1       -0.963   0.527   0.526  0.00  0.00    +0.000 C 
ATOM     10  C   LIG    1       -0.730  -0.949   0.196  0.00  0.00    -0.010 C 
ENDBRANCH   8  10
ENDBRANCH   7   8
ENDBRANCH   1   7
TORSDOF 5
ENDMDL
MODEL      685
REMARK  Name = ZINC000002565569
REMARK                            x       y       z     vdW  Elec       q    Type
REMARK                         _______ _______ _______ _____ _____    ______ ____
ROOT
ATOM      1  C   LIG    1        1.476  -4.051  -2.532  0.00  0.00    -0.120 C 
ATOM      2  C   LIG    1        2.221  -4.561  -3.783  0.00  0.00    +0.050 C 
ATOM      3  C   LIG    1        2.995  -5.801  -3.271  0.00  0.00    +0.040 C 
ATOM      4  C   LIG    1        3.421  -5.360  -1.848  0.00  0.00    -0.130 C 
ATOM      5  C   LIG    1        4.672  -4.482  -1.913  0.00  0.00    +0.060 C 
ATOM      6  C   LIG    1        3.673  -6.583  -0.963  0.00  0.00    +0.040 C 
ATOM      7  C   LIG    1        0.045  -4.593  -2.517  0.00  0.00    +0.060 C 
ATOM      8  C   LIG    1        2.237  -4.564  -1.328  0.00  0.00    +0.390 C 
ATOM      9  O   LIG    1        1.955  -4.376  -0.169  0.00  0.00    -0.430 OA
ENDROOT
BRANCH   1  10
ATOM     10  C   LIG    1        1.455  -2.521  -2.524  0.00  0.00    +0.030 C 
BRANCH  10  11
ATOM     11  C   LIG    1        0.739  -2.027  -1.265  0.00  0.00    +0.020 C 
BRANCH  11  12
ATOM     12  C   LIG    1        0.718  -0.497  -1.257  0.00  0.00    +0.000 C 
BRANCH  12  14
ATOM     13  C   LIG    1       -0.019   1.526   0.010  0.00  0.00    +0.000 C 
ATOM     14  C   LIG    1        0.002  -0.004   0.002  0.00  0.00    -0.010 C 
ENDBRANCH  12  14
ENDBRANCH  11  12
ENDBRANCH  10  11
ENDBRANCH   1  10
TORSDOF 4
ENDMDL
MODEL      686
REMARK  Name = ZINC000002564090
REMARK                            x       y       z     vdW  Elec       q    Type
REMARK                         _______ _______ _______ _____ _____    ______ ____
ROOT
ATOM      1  C   LIG    1        1.444  -2.513  -2.505  0.00  0.00    -0.140 C 
ATOM      2  C   LIG    1        2.720  -2.808  -2.460  0.00  0.00    -0.140 C 
ATOM      3  C   LIG    1        3.425  -3.294  -3.700  0.00  0.00    +0.060 C 
ATOM      4  C   LIG    1        3.482  -2.661  -1.168  0.00  0.00    +0.070 C 
ATOM      5  C   LIG    1        0.682  -2.660  -3.797  0.00  0.00    +0.060 C 
ENDROOT
BRANCH   1   6
ATOM      6  C   LIG    1        0.739  -2.027  -1.265  0.00  0.00    +0.050 C 
BRANCH   6   7
ATOM      7  C   LIG    1        0.718  -0.497  -1.257  0.00  0.00    +0.010 C 
BRANCH   7   9
ATOM      8  C   LIG    1       -0.019   1.526   0.010  0.00  0.00    +0.000 C 
ATOM      9  C   LIG    1        0.002  -0.004   0.002  0.00  0.00    -0.010 C 
ENDBRANCH   7   9
ENDBRANCH   6   7
ENDBRANCH   1   6
TORSDOF 3
ENDMDL
MODEL      687
REMARK  Name = ZINC000002566822
REMARK                            x       y       z     vdW  Elec       q    Type
REMARK                         _______ _______ _______ _____ _____    ______ ____
ROOT
ATOM      1  C   LIG    1       -0.018   1.503   0.010  0.00  0.00    +0.090 C 
ATOM      2  C   LIG    1        0.002  -0.004   0.002  0.00  0.00    -0.080 A 
ATOM      3  C   LIG    1        0.006  -0.686  -1.201  0.00  0.00    -0.010 A 
ATOM      4  C   LIG    1        0.024  -2.067  -1.214  0.00  0.00    +0.020 A 
ATOM      5  C   LIG    1        0.039  -2.772  -0.013  0.00  0.00    -0.060 A 
ATOM      6  C   LIG    1        0.036  -2.079   1.196  0.00  0.00    -0.070 A 
ATOM      7  C   LIG    1        0.053  -2.836   2.499  0.00  0.00    +0.090 C 
ATOM      8  C   LIG    1        0.023  -0.700   1.198  0.00  0.00    +0.000 A 
ENDROOT
BRANCH   5   9
ATOM      9  C   LIG    1        0.059  -4.256  -0.021  0.00  0.00    -0.040 A 
ATOM     10  C   LIG    1        0.992  -4.947   0.750  0.00  0.00    +0.010 A 
ATOM     11  C   LIG    1        1.006  -6.327   0.738  0.00  0.00    +0.000 A 
ATOM     12  C   LIG    1        0.097  -7.024  -0.037  0.00  0.00    +0.000 A 
ATOM     13  C   LIG    1       -0.831  -6.343  -0.804  0.00  0.00    +0.000 A 
ATOM     14  C   LIG    1       -0.858  -4.963  -0.795  0.00  0.00    +0.010 A 
ENDBRANCH   5   9
TORSDOF 1
ENDMDL
MODEL      688
REMARK  Name = ZINC000002575263
REMARK                            x       y       z     vdW  Elec       q    Type
REMARK                         _______ _______ _______ _____ _____    ______ ____
ROOT
ATOM      1  C   LIG    1       -2.848  -2.593   0.015  0.00  0.00    +0.030 C 
ATOM      2  C   LIG    1       -3.550  -2.191  -1.283  0.00  0.00    +0.020 C 
ENDROOT
BRANCH   1   3
ATOM      3  C   LIG    1       -2.828  -4.096   0.131  0.00  0.00    -0.080 A 
ATOM      4  C   LIG    1       -2.195  -4.855  -0.835  0.00  0.00    +0.000 A 
ATOM      5  C   LIG    1       -2.176  -6.233  -0.729  0.00  0.00    +0.000 A 
ATOM      6  C   LIG    1       -2.792  -6.852   0.343  0.00  0.00    -0.010 A 
ATOM      7  C   LIG    1       -3.425  -6.093   1.310  0.00  0.00    +0.000 A 
ATOM      8  C   LIG    1       -3.439  -4.714   1.206  0.00  0.00    +0.000 A 
ENDBRANCH   1   3
BRANCH   1   9
ATOM      9  C   LIG    1       -1.413  -2.063   0.004  0.00  0.00    +0.010 C 
BRANCH   9  10
ATOM     10  C   LIG    1       -1.433  -0.534   0.013  0.00  0.00    +0.000 C 
BRANCH  10  12
ATOM     11  C   LIG    1       -0.019   1.526   0.010  0.00  0.00    +0.000 C 
ATOM     12  C   LIG    1        0.002  -0.004   0.002  0.00  0.00    -0.010 C 
ENDBRANCH  10  12
ENDBRANCH   9  10
ENDBRANCH   1   9
TORSDOF 4
ENDMDL
MODEL      689
REMARK  Name = ZINC000002583666
REMARK                            x       y       z     vdW  Elec       q    Type
REMARK                         _______ _______ _______ _____ _____    ______ ____
ROOT
ATOM      1  C   LIG    1       -0.018   1.503   0.010  0.00  0.00    +0.100 C 
ATOM      2  C   LIG    1        0.002  -0.004   0.002  0.00  0.00    -0.030 A 
ATOM      3  C   LIG    1        0.006  -0.690  -1.194  0.00  0.00    -0.010 A 
ATOM      4  C   LIG    1        0.025  -2.075  -1.202  0.00  0.00    +0.060 A 
ATOM      5  C   LIG    1        0.040  -2.784  -0.019  0.00  0.00    +0.020 A 
ATOM      6  C   LIG    1        0.036  -2.110   1.196  0.00  0.00    +0.090 A 
ATOM      7  O   LIG    1        0.048  -2.544   2.476  0.00  0.00    -0.200 OA
ATOM      8  C   LIG    1        0.036  -1.513   3.349  0.00  0.00    +0.080 A 
ATOM      9  C   LIG    1        0.039  -1.464   4.738  0.00  0.00    +0.030 A 
ATOM     10  C   LIG    1        0.030  -0.247   5.387  0.00  0.00    +0.060 A 
ATOM     11  C   LIG    1        0.016   0.937   4.666  0.00  0.00    -0.010 A 
ATOM     12  C   LIG    1        0.013   0.908   3.287  0.00  0.00    +0.060 A 
ATOM     13  C   LIG    1        0.023  -0.314   2.623  0.00  0.00    -0.120 A 
ATOM     14  C   LIG    1        0.023  -0.709   1.201  0.00  0.00    -0.120 A 
ENDROOT
TORSDOF 0
ENDMDL
MODEL      690
REMARK  Name = ZINC000002709463
REMARK                            x       y       z     vdW  Elec       q    Type
REMARK                         _______ _______ _______ _____ _____    ______ ____
ROOT
ATOM      1  N   LIG    1       -2.873  -2.382   0.043  0.00  0.00    -0.440 N 
ATOM      2  C   LIG    1       -3.365  -2.898   1.199  0.00  0.00    +0.170 A 
ATOM      3  C   LIG    1       -4.545  -3.555   1.213  0.00  0.00    -0.020 A 
ATOM      4  C   LIG    1       -5.269  -3.703   0.006  0.00  0.00    +0.160 A 
ATOM      5  C   LIG    1       -4.729  -3.153  -1.181  0.00  0.00    -0.020 A 
ATOM      6  S   LIG    1       -6.768  -4.528  -0.017  0.00  0.00    -0.640 S 
ATOM      7  C   LIG    1       -2.587  -2.737   2.479  0.00  0.00    +0.150 C 
ATOM      8  C   LIG    1       -3.547  -2.502  -1.129  0.00  0.00    +0.170 A 
ATOM      9  C   LIG    1       -2.964  -1.914  -2.388  0.00  0.00    +0.150 C 
ENDROOT
BRANCH   1  10
ATOM     10  C   LIG    1       -1.591  -1.674   0.064  0.00  0.00    +0.290 C 
BRANCH  10  11
ATOM     11  C   LIG    1       -0.456  -2.666  -0.199  0.00  0.00    +0.020 C 
BRANCH  11  13
ATOM     12  C   LIG    1        2.017  -2.919  -0.441  0.00  0.00    +0.020 C 
ATOM     13  C   LIG    1        0.883  -1.927  -0.178  0.00  0.00    +0.020 C 
ENDBRANCH  11  13
ENDBRANCH  10  11
ENDBRANCH   1  10
TORSDOF 3
ENDMDL
MODEL      691
REMARK  Name = ZINC000004208902
REMARK                            x       y       z     vdW  Elec       q    Type
REMARK                         _______ _______ _______ _____ _____    ______ ____
ROOT
ATOM      1  C   LIG    1       -0.018   1.503   0.010  0.00  0.00    +0.100 C 
ATOM      2  C   LIG    1        0.002  -0.004   0.002  0.00  0.00    -0.080 A 
ATOM      3  C   LIG    1        0.006  -0.686  -1.196  0.00  0.00    +0.050 A 
ATOM      4  C   LIG    1        0.024  -2.072  -1.220  0.00  0.00    +0.000 A 
ATOM      5  C   LIG    1        0.039  -2.784  -0.039  0.00  0.00    +0.060 A 
ATOM      6  C   LIG    1        0.036  -2.106   1.176  0.00  0.00    -0.120 A 
ATOM      7  C   LIG    1        0.048  -2.532   2.588  0.00  0.00    -0.120 A 
ATOM      8  C   LIG    1        0.061  -3.768   3.225  0.00  0.00    +0.070 A 
ATOM      9  C   LIG    1        0.061  -3.829   4.603  0.00  0.00    -0.010 A 
ATOM     10  C   LIG    1        0.047  -2.661   5.350  0.00  0.00    +0.060 A 
ATOM     11  C   LIG    1        0.039  -1.430   4.729  0.00  0.00    +0.020 A 
ATOM     12  C   LIG    1        0.034  -1.350   3.341  0.00  0.00    +0.080 A 
ATOM     13  O   LIG    1        0.023  -0.300   2.491  0.00  0.00    -0.200 OA
ATOM     14  C   LIG    1        0.023  -0.705   1.202  0.00  0.00    +0.080 A 
ENDROOT
TORSDOF 0
ENDMDL
MODEL      692
REMARK  Name = ZINC000004299220
REMARK                            x       y       z     vdW  Elec       q    Type
REMARK                         _______ _______ _______ _____ _____    ______ ____
ROOT
ATOM      1  C   LIG    1       -0.018   1.503   0.010  0.00  0.00    +0.090 C 
ATOM      2  C   LIG    1        0.002  -0.004   0.002  0.00  0.00    -0.080 A 
ATOM      3  C   LIG    1        0.006  -0.688  -1.200  0.00  0.00    +0.000 A 
ATOM      4  C   LIG    1        0.025  -2.071  -1.215  0.00  0.00    +0.020 A 
ATOM      5  C   LIG    1        0.041  -2.776  -0.029  0.00  0.00    +0.000 A 
ATOM      6  C   LIG    1        0.037  -2.093   1.185  0.00  0.00    -0.020 A 
ATOM      7  C   LIG    1        0.023  -0.699   1.194  0.00  0.00    +0.010 A 
ENDROOT
BRANCH   6   8
ATOM      8  C   LIG    1        0.054  -2.845   2.463  0.00  0.00    -0.060 A 
ATOM      9  C   LIG    1        0.045  -2.240   3.665  0.00  0.00    -0.040 A 
ATOM     10  S   LIG    1        0.069  -3.456   4.936  0.00  0.00    +0.110 S 
ATOM     11  C   LIG    1        0.090  -4.750   3.747  0.00  0.00    -0.040 A 
ATOM     12  C   LIG    1        0.073  -4.238   2.519  0.00  0.00    +0.010 A 
ENDBRANCH   6   8
TORSDOF 1
ENDMDL
MODEL      693
REMARK  Name = ZINC000004299219
REMARK                            x       y       z     vdW  Elec       q    Type
REMARK                         _______ _______ _______ _____ _____    ______ ____
ROOT
ATOM      1  C   LIG    1       -0.018   1.503   0.010  0.00  0.00    +0.090 C 
ATOM      2  C   LIG    1        0.002  -0.004   0.002  0.00  0.00    -0.090 A 
ATOM      3  C   LIG    1        0.006  -0.686  -1.201  0.00  0.00    +0.000 A 
ATOM      4  C   LIG    1        0.024  -2.066  -1.215  0.00  0.00    +0.010 A 
ATOM      5  C   LIG    1        0.040  -2.772  -0.013  0.00  0.00    -0.030 A 
ATOM      6  C   LIG    1        0.036  -2.080   1.196  0.00  0.00    +0.020 A 
ATOM      7  C   LIG    1        0.023  -0.700   1.198  0.00  0.00    +0.000 A 
ENDROOT
BRANCH   5   8
ATOM      8  C   LIG    1        0.060  -4.256  -0.021  0.00  0.00    -0.060 A 
ATOM      9  C   LIG    1        0.071  -4.978  -1.157  0.00  0.00    -0.040 A 
ATOM     10  S   LIG    1        0.095  -6.692  -0.764  0.00  0.00    +0.110 S 
ATOM     11  C   LIG    1        0.089  -6.333   0.957  0.00  0.00    -0.040 A 
ATOM     12  C   LIG    1        0.076  -5.016   1.146  0.00  0.00    +0.010 A 
ENDBRANCH   5   8
TORSDOF 1
ENDMDL
MODEL      694
REMARK  Name = ZINC000004543820
REMARK                            x       y       z     vdW  Elec       q    Type
REMARK                         _______ _______ _______ _____ _____    ______ ____
ROOT
ATOM      1  C   LIG    1        2.989  -3.711  -1.042  0.00  0.00    +0.050 C 
ENDROOT
BRANCH   1   3
ATOM      2  C   LIG    1        1.406  -2.574  -2.512  0.00  0.00    -0.050 C 
ATOM      3  C   LIG    1        2.521  -3.252  -2.399  0.00  0.00    -0.050 C 
BRANCH   2   4
ATOM      4  C   LIG    1        0.680  -2.106  -1.277  0.00  0.00    +0.050 C 
BRANCH   4   5
ATOM      5  C   LIG    1        0.409  -0.604  -1.384  0.00  0.00    +0.010 C 
BRANCH   5   7
ATOM      6  C   LIG    1       -0.598   1.374  -0.237  0.00  0.00    +0.000 C 
ATOM      7  C   LIG    1       -0.327  -0.128  -0.131  0.00  0.00    -0.010 C 
ENDBRANCH   5   7
ENDBRANCH   4   5
ENDBRANCH   2   4
ENDBRANCH   1   3
BRANCH   1   8
ATOM      8  C   LIG    1        3.244  -5.219  -1.073  0.00  0.00    +0.010 C 
BRANCH   8   9
ATOM      9  C   LIG    1        3.720  -5.684   0.304  0.00  0.00    +0.000 C 
BRANCH   9  10
ATOM     10  C   LIG    1        3.975  -7.193   0.273  0.00  0.00    +0.000 C 
BRANCH  10  11
ATOM     11  C   LIG    1        4.451  -7.658   1.651  0.00  0.00    +0.020 C 
BRANCH  11  12
ATOM     12  C   LIG    1        4.706  -9.166   1.620  0.00  0.00    +0.150 C 
BRANCH  12  13
ATOM     13  O   LIG    1        5.150  -9.601   2.906  0.00  0.00    -0.580 OA
ATOM     14  H   LIG    1        5.332 -10.549   2.960  0.00  0.00    +0.380 HD
ENDBRANCH  12  13
ENDBRANCH  11  12
ENDBRANCH  10  11
ENDBRANCH   9  10
ENDBRANCH   8   9
ENDBRANCH   1   8
TORSDOF 10
ENDMDL
MODEL      695
REMARK  Name = ZINC000004798731
REMARK                            x       y       z     vdW  Elec       q    Type
REMARK                         _______ _______ _______ _____ _____    ______ ____
ROOT
ATOM      1  C   LIG    1       -0.018   1.503   0.010  0.00  0.00    +0.100 C 
ATOM      2  C   LIG    1        0.002  -0.004   0.002  0.00  0.00    -0.100 A 
ATOM      3  C   LIG    1        0.006  -0.686  -1.197  0.00  0.00    +0.070 A 
ATOM      4  C   LIG    1        0.025  -2.076  -1.200  0.00  0.00    -0.120 A 
ATOM      5  C   LIG    1        0.040  -2.785   0.009  0.00  0.00    +0.080 A 
ATOM      6  O   LIG    1        0.056  -4.107  -0.268  0.00  0.00    -0.200 OA
ATOM      7  C   LIG    1        0.053  -4.335  -1.600  0.00  0.00    +0.080 A 
ATOM      8  C   LIG    1        0.064  -5.505  -2.349  0.00  0.00    +0.020 A 
ATOM      9  C   LIG    1        0.056  -5.445  -3.727  0.00  0.00    +0.060 A 
ATOM     10  C   LIG    1        0.037  -4.223  -4.379  0.00  0.00    -0.010 A 
ATOM     11  C   LIG    1        0.025  -3.050  -3.652  0.00  0.00    +0.070 A 
ATOM     12  C   LIG    1        0.036  -2.081   1.208  0.00  0.00    +0.030 A 
ATOM     13  C   LIG    1        0.033  -3.100  -2.263  0.00  0.00    -0.120 A 
ATOM     14  C   LIG    1        0.023  -0.702   1.199  0.00  0.00    +0.060 A 
ENDROOT
TORSDOF 0
ENDMDL
MODEL      696
REMARK  Name = ZINC000001442954
REMARK                            x       y       z     vdW  Elec       q    Type
REMARK                         _______ _______ _______ _____ _____    ______ ____
ROOT
ATOM      1  C   LIG    1        3.682   1.578  -0.024  0.00  0.00    +0.050 C 
ATOM      2  C   LIG    1        4.350   0.980   1.216  0.00  0.00    +0.010 C 
ATOM      3  C   LIG    1        5.843   1.318   1.204  0.00  0.00    +0.000 C 
ATOM      4  C   LIG    1        6.487   0.734  -0.055  0.00  0.00    +0.000 C 
ATOM      5  C   LIG    1        5.819   1.332  -1.295  0.00  0.00    +0.000 C 
ATOM      6  C   LIG    1        4.327   0.994  -1.283  0.00  0.00    +0.010 C 
ENDROOT
BRANCH   1   9
ATOM      7  C   LIG    1       -0.022   1.755   0.012  0.00  0.00    -0.050 A 
ATOM      8  C   LIG    1        1.229   2.219   0.002  0.00  0.00    +0.010 A 
ATOM      9  C   LIG    1        2.212   1.245  -0.012  0.00  0.00    -0.090 A 
ATOM     10  C   LIG    1        1.761  -0.010  -0.015  0.00  0.00    -0.050 A 
ATOM     11  S   LIG    1        0.002  -0.004   0.002  0.00  0.00    +0.090 S 
ENDBRANCH   1   9
TORSDOF 1
ENDMDL
MODEL      697
REMARK  Name = ZINC000005011997
REMARK                            x       y       z     vdW  Elec       q    Type
REMARK                         _______ _______ _______ _____ _____    ______ ____
ROOT
ATOM      1  C   LIG    1        0.072  -4.246  -0.022  0.00  0.00    +0.070 C 
ATOM      2  C   LIG    1        0.176  -4.923   1.133  0.00  0.00    +0.000 C 
ENDROOT
BRANCH   1   7
ATOM      3  C   LIG    1        0.587   1.481  -0.053  0.00  0.00    +0.070 C 
ATOM      4  C   LIG    1        0.452  -0.020  -0.045  0.00  0.00    -0.070 A 
ATOM      5  C   LIG    1       -0.511  -0.629  -0.830  0.00  0.00    -0.020 A 
ATOM      6  C   LIG    1       -0.640  -2.002  -0.828  0.00  0.00    +0.020 A 
ATOM      7  C   LIG    1        0.204  -2.778  -0.030  0.00  0.00    -0.060 A 
ATOM      8  C   LIG    1        1.174  -2.156   0.761  0.00  0.00    +0.100 A 
ATOM      9  C   LIG    1        1.296  -0.782   0.744  0.00  0.00    -0.040 A 
ENDBRANCH   1   7
BRANCH   2  10
ATOM     10  C   LIG    1        0.172  -4.198   2.415  0.00  0.00    +0.150 A 
ATOM     11  C   LIG    1        0.403  -4.892   3.605  0.00  0.00    -0.030 A 
ATOM     12  C   LIG    1        0.397  -4.196   4.801  0.00  0.00    +0.050 A 
ATOM     13  C   LIG    1        0.159  -2.829   4.771  0.00  0.00    -0.050 A 
ATOM     14  C   LIG    1       -0.063  -2.204   3.557  0.00  0.00    +0.250 A 
ATOM     15  N   LIG    1       -0.046  -2.886   2.431  0.00  0.00    -0.460 NA
ENDBRANCH   2  10
TORSDOF 2
ENDMDL
MODEL      698
REMARK  Name = ZINC000001627060
REMARK                            x       y       z     vdW  Elec       q    Type
REMARK                         _______ _______ _______ _____ _____    ______ ____
ROOT
ATOM      1  F   LIG    1        0.002  -0.004   0.002  0.00  0.00    -0.140 F 
ATOM      2  C   LIG    1       -0.016   1.347   0.009  0.00  0.00    +0.100 A 
ATOM      3  C   LIG    1       -1.227   2.021   0.030  0.00  0.00    -0.010 A 
ATOM      4  C   LIG    1       -1.251   3.400   0.038  0.00  0.00    +0.050 A 
ATOM      5  C   LIG    1       -0.054   4.116   0.026  0.00  0.00    -0.060 A 
ATOM      6  C   LIG    1        1.163   3.433   0.004  0.00  0.00    +0.050 A 
ATOM      7  C   LIG    1        1.176   2.054   0.002  0.00  0.00    -0.010 A 
ENDROOT
BRANCH   5   8
ATOM      8  C   LIG    1       -0.074   5.594   0.035  0.00  0.00    -0.090 C 
ATOM      9  C   LIG    1       -0.551   6.198   1.096  0.00  0.00    -0.030 C 
ATOM     10  C   LIG    1       -0.641   7.690   1.240  0.00  0.00    +0.060 C 
ATOM     11  C   LIG    1        0.262   8.373   0.211  0.00  0.00    +0.010 C 
ATOM     12  C   LIG    1       -0.026   7.768  -1.169  0.00  0.00    +0.020 C 
ATOM     13  C   LIG    1        0.459   6.315  -1.169  0.00  0.00    +0.060 C 
ENDBRANCH   5   8
TORSDOF 1
ENDMDL
MODEL      699
REMARK  Name = ZINC000001632732
REMARK                            x       y       z     vdW  Elec       q    Type
REMARK                         _______ _______ _______ _____ _____    ______ ____
ROOT
ATOM      1  C   LIG    1       -3.224  -1.879  -0.907  0.00  0.00    +0.040 C 
ENDROOT
BRANCH   1   3
ATOM      2  C   LIG    1       -1.412  -0.526   0.013  0.00  0.00    -0.050 C 
ATOM      3  C   LIG    1       -1.810  -1.358  -0.917  0.00  0.00    -0.050 C 
BRANCH   2   5
ATOM      4  C   LIG    1       -0.019   1.526   0.010  0.00  0.00    +0.010 C 
ATOM      5  C   LIG    1        0.002  -0.004   0.002  0.00  0.00    +0.030 C 
ENDBRANCH   2   5
ENDBRANCH   1   3
BRANCH   1   6
ATOM      6  C   LIG    1       -3.886  -1.586  -2.254  0.00  0.00    +0.000 C 
BRANCH   6   7
ATOM      7  C   LIG    1       -5.321  -2.115  -2.244  0.00  0.00    +0.000 C 
BRANCH   7   8
ATOM      8  C   LIG    1       -5.983  -1.822  -3.591  0.00  0.00    -0.010 C 
ATOM      9  C   LIG    1       -7.419  -2.352  -3.580  0.00  0.00    +0.000 C 
ENDBRANCH   7   8
ENDBRANCH   6   7
ENDBRANCH   1   6
TORSDOF 5
ENDMDL
MODEL      700
REMARK  Name = ZINC000005138170
REMARK                            x       y       z     vdW  Elec       q    Type
REMARK                         _______ _______ _______ _____ _____    ______ ____
ROOT
ATOM      1  C   LIG    1        0.707  -0.490  -1.238  0.00  0.00    -0.020 A 
ATOM      2  C   LIG    1        0.050  -1.287  -2.162  0.00  0.00    -0.040 A 
ATOM      3  C   LIG    1        0.729  -1.714  -3.288  0.00  0.00    +0.250 A 
ATOM      4  N   LIG    1        1.987  -1.372  -3.487  0.00  0.00    -0.480 NA
ATOM      5  C   LIG    1        2.644  -0.615  -2.629  0.00  0.00    +0.140 A 
ATOM      6  C   LIG    1        2.028  -0.146  -1.484  0.00  0.00    -0.040 A 
ENDROOT
BRANCH   1   8
ATOM      7  C   LIG    1       -0.019   1.526   0.010  0.00  0.00    +0.040 C 
ATOM      8  C   LIG    1        0.002  -0.004   0.002  0.00  0.00    -0.030 C 
ATOM      9  C   LIG    1       -1.433  -0.534   0.013  0.00  0.00    +0.030 C 
ATOM     10  C   LIG    1        0.742  -0.511   1.242  0.00  0.00    +0.040 C 
ENDBRANCH   1   8
BRANCH   5  11
ATOM     11  C   LIG    1        4.080  -0.252  -2.904  0.00  0.00    -0.020 C 
ATOM     12  C   LIG    1        4.292   1.238  -2.630  0.00  0.00    +0.040 C 
ATOM     13  C   LIG    1        4.411  -0.553  -4.367  0.00  0.00    +0.030 C 
ATOM     14  C   LIG    1        4.997  -1.073  -1.994  0.00  0.00    +0.040 C 
ENDBRANCH   5  11
TORSDOF 2
ENDMDL
MODEL      701
REMARK  Name = ZINC000005161053
REMARK                            x       y       z     vdW  Elec       q    Type
REMARK                         _______ _______ _______ _____ _____    ______ ____
ROOT
ATOM      1  C   LIG    1       -0.018   1.503   0.010  0.00  0.00    +0.090 C 
ATOM      2  C   LIG    1        0.002  -0.004   0.002  0.00  0.00    -0.050 A 
ATOM      3  C   LIG    1        0.006  -0.681  -1.198  0.00  0.00    -0.030 A 
ATOM      4  C   LIG    1        0.025  -2.072  -1.214  0.00  0.00    +0.150 A 
ATOM      5  C   LIG    1        0.041  -2.773   0.001  0.00  0.00    -0.110 A 
ATOM      6  C   LIG    1        0.059  -4.206  -0.343  0.00  0.00    -0.100 A 
ATOM      7  C   LIG    1        0.052  -4.280  -1.743  0.00  0.00    +0.140 A 
ATOM      8  C   LIG    1        0.066  -5.527  -2.361  0.00  0.00    -0.020 A 
ATOM      9  C   LIG    1        0.085  -6.674  -1.598  0.00  0.00    +0.050 A 
ATOM     10  C   LIG    1        0.091  -6.600  -0.213  0.00  0.00    -0.020 A 
ATOM     11  C   LIG    1        0.079  -5.374   0.416  0.00  0.00    +0.070 A 
ATOM     12  C   LIG    1        0.038  -2.076   1.208  0.00  0.00    +0.070 A 
ATOM     13  N   LIG    1        0.032  -2.992  -2.248  0.00  0.00    -0.510 N 
ATOM     14  C   LIG    1        0.020  -2.650  -3.672  0.00  0.00    +0.310 C 
ATOM     15  C   LIG    1        0.023  -0.698   1.202  0.00  0.00    -0.020 A 
ENDROOT
TORSDOF 0
ENDMDL
