REMARK  Name = ZINC000072227003
REMARK                            x       y       z     vdW  Elec       q    Type
REMARK                         _______ _______ _______ _____ _____    ______ ____
ROOT
ATOM      1  C   LIG    1       -0.018   1.503   0.010  0.00  0.00    +0.060 C 
ATOM      2  C   LIG    1        0.002  -0.004   0.002  0.00  0.00    -0.160 A 
ATOM      3  C   LIG    1        0.006  -0.684  -1.214  0.00  0.00    -0.010 A 
ATOM      4  C   LIG    1        0.024  -2.044  -1.257  0.00  0.00    -0.020 A 
ATOM      5  C   LIG    1        0.040  -2.777  -0.058  0.00  0.00    +0.030 A 
ATOM      6  C   LIG    1        0.037  -2.086   1.179  0.00  0.00    -0.140 A 
ATOM      7  C   LIG    1        0.053  -2.817   2.380  0.00  0.00    +0.030 A 
ATOM      8  C   LIG    1        0.073  -4.177   2.341  0.00  0.00    -0.080 A 
ATOM      9  C   LIG    1        0.076  -4.862   1.123  0.00  0.00    +0.280 A 
ATOM     10  O   LIG    1        0.095  -6.221   1.117  0.00  0.00    -0.700 OA
ATOM     11  C   LIG    1        0.060  -4.182  -0.063  0.00  0.00    -0.220 A 
ATOM     12 CL   LIG    1        0.065  -5.050  -1.567  0.00  0.00    -0.110 Cl
ATOM     13  C   LIG    1        0.022  -0.681   1.183  0.00  0.00    +0.040 A 
ENDROOT
TORSDOF 0
