MODEL        1
REMARK  Name = ZINC001242760782
REMARK                            x       y       z     vdW  Elec       q    Type
REMARK                         _______ _______ _______ _____ _____    ______ ____
ROOT
ATOM      1  C   LIG    1        0.596  -2.132  -1.009  0.00  0.00    -0.050 A 
ATOM      2  C   LIG    1        1.302  -2.826  -0.028  0.00  0.00    +0.010 A 
ATOM      3  C   LIG    1        1.318  -4.214  -0.038  0.00  0.00    +0.130 A 
ATOM      4  C   LIG    1        0.632  -4.911  -1.024  0.00  0.00    +0.020 A 
ATOM      5  C   LIG    1       -0.072  -4.222  -2.003  0.00  0.00    -0.090 A 
ATOM      6  S   LIG    1        2.210  -5.093   1.202  0.00  0.00    -0.940 S 
ATOM      7  C   LIG    1       -0.097  -2.834  -1.995  0.00  0.00    +0.000 A 
ENDROOT
BRANCH   1  10
ATOM      8  C   LIG    1       -0.018   1.503   0.010  0.00  0.00    +0.060 C 
ATOM      9  C   LIG    1        0.002  -0.004   0.002  0.00  0.00    -0.060 C 
ATOM     10  C   LIG    1        0.576  -0.654  -1.001  0.00  0.00    -0.080 C 
ATOM     11  C   LIG    1        1.207   0.115  -2.133  0.00  0.00    +0.080 C 
ENDBRANCH   1  10
BRANCH   5  12
ATOM     12  S   LIG    1       -0.940  -5.111  -3.253  0.00  0.00    -0.150 S 
ATOM     13  H   LIG    1       -2.159  -5.281  -2.710  0.00  0.00    +0.070 HD
ENDBRANCH   5  12
TORSDOF 2
ENDMDL
MODEL        2
REMARK  Name = ZINC001249953724
REMARK                            x       y       z     vdW  Elec       q    Type
REMARK                         _______ _______ _______ _____ _____    ______ ____
ROOT
ATOM      1  C   LIG    1        0.882  -0.501  -3.382  0.00  0.00    -0.020 A 
ATOM      2  C   LIG    1        2.156   0.030  -3.470  0.00  0.00    -0.150 A 
ATOM      3  C   LIG    1        3.079  -0.520  -4.340  0.00  0.00    +0.020 A 
ATOM      4  C   LIG    1        2.732  -1.604  -5.123  0.00  0.00    -0.170 A 
ATOM      5  C   LIG    1        1.455  -2.140  -5.037  0.00  0.00    +0.280 A 
ATOM      6  O   LIG    1        1.111  -3.206  -5.808  0.00  0.00    -0.710 OA
ATOM      7  C   LIG    1        0.531  -1.589  -4.160  0.00  0.00    -0.170 A 
ATOM      8 CL   LIG    1       -1.067  -2.257  -4.049  0.00  0.00    -0.110 Cl
ENDROOT
BRANCH   1   9
ATOM      9  C   LIG    1       -0.122   0.102  -2.434  0.00  0.00    +0.100 C 
BRANCH   9  12
ATOM     10  C   LIG    1        0.164   1.493   0.002  0.00  0.00    +0.060 C 
ATOM     11  C   LIG    1        0.091  -0.013  -0.004  0.00  0.00    -0.160 C 
ATOM     12  C   LIG    1       -0.099  -0.654  -1.131  0.00  0.00    -0.010 C 
ATOM     13  C   LIG    1        0.238  -0.780   1.284  0.00  0.00    +0.070 C 
ENDBRANCH   9  12
ENDBRANCH   1   9
TORSDOF 2
ENDMDL
MODEL        3
REMARK  Name = ZINC001249953153
REMARK                            x       y       z     vdW  Elec       q    Type
REMARK                         _______ _______ _______ _____ _____    ______ ____
ROOT
ATOM      1  C   LIG    1        0.882  -0.501  -3.382  0.00  0.00    -0.030 A 
ATOM      2  C   LIG    1        2.185  -0.037  -3.396  0.00  0.00    -0.150 A 
ATOM      3  C   LIG    1        3.109  -0.588  -4.265  0.00  0.00    +0.040 A 
ATOM      4  C   LIG    1        2.732  -1.605  -5.122  0.00  0.00    -0.180 A 
ATOM      5  C   LIG    1        1.424  -2.072  -5.110  0.00  0.00    +0.280 A 
ATOM      6  O   LIG    1        1.051  -3.071  -5.952  0.00  0.00    -0.710 OA
ATOM      7 CL   LIG    1        3.892  -2.296  -6.213  0.00  0.00    -0.120 Cl
ATOM      8  C   LIG    1        0.502  -1.521  -4.234  0.00  0.00    -0.160 A 
ENDROOT
BRANCH   1   9
ATOM      9  C   LIG    1       -0.122   0.102  -2.434  0.00  0.00    +0.090 C 
BRANCH   9  12
ATOM     10  C   LIG    1        0.163   1.493   0.002  0.00  0.00    +0.060 C 
ATOM     11  C   LIG    1        0.091  -0.013  -0.004  0.00  0.00    -0.160 C 
ATOM     12  C   LIG    1       -0.099  -0.654  -1.131  0.00  0.00    -0.020 C 
ATOM     13  C   LIG    1        0.237  -0.780   1.284  0.00  0.00    +0.070 C 
ENDBRANCH   9  12
ENDBRANCH   1   9
TORSDOF 2
ENDMDL
MODEL        4
REMARK  Name = ZINC001240638192
REMARK                            x       y       z     vdW  Elec       q    Type
REMARK                         _______ _______ _______ _____ _____    ______ ____
ROOT
ATOM      1  C   LIG    1       -2.448  -0.009   0.111  0.00  0.00    -0.050 A 
ATOM      2  C   LIG    1       -2.484   1.369  -0.098  0.00  0.00    +0.020 A 
ATOM      3  C   LIG    1       -3.699   2.041  -0.085  0.00  0.00    +0.120 A 
ATOM      4  C   LIG    1       -4.878   1.341   0.136  0.00  0.00    +0.020 A 
ATOM      5  C   LIG    1       -4.846  -0.032   0.345  0.00  0.00    -0.090 A 
ATOM      6  S   LIG    1       -3.745   3.782  -0.348  0.00  0.00    -0.940 S 
ATOM      7  C   LIG    1       -3.635  -0.710   0.327  0.00  0.00    +0.000 A 
ENDROOT
BRANCH   1  10
ATOM      8  C   LIG    1       -0.245   1.054   1.520  0.00  0.00    +0.070 C 
ATOM      9  C   LIG    1       -0.097  -0.197   0.693  0.00  0.00    -0.130 C 
ATOM     10  C   LIG    1       -1.156  -0.727   0.097  0.00  0.00    -0.010 C 
ATOM     11  C   LIG    1        1.255  -0.845   0.542  0.00  0.00    +0.070 C 
ENDBRANCH   1  10
BRANCH   5  12
ATOM     12  S   LIG    1       -6.344  -0.916   0.624  0.00  0.00    -0.150 S 
ATOM     13  H   LIG    1       -6.725  -1.266  -0.617  0.00  0.00    +0.070 HD
ENDBRANCH   5  12
TORSDOF 2
ENDMDL
