MODEL        1
REMARK  Name = ZINC001242254979
REMARK                            x       y       z     vdW  Elec       q    Type
REMARK                         _______ _______ _______ _____ _____    ______ ____
ROOT
ATOM      1  C   LIG    1        1.937  -4.143   1.311  0.00  0.00    -0.110 A 
ATOM      2  C   LIG    1        0.745  -4.859   1.207  0.00  0.00    +0.020 A 
ATOM      3  C   LIG    1        0.770  -6.239   1.200  0.00  0.00    -0.090 A 
ATOM      4  C   LIG    1        1.973  -6.917   1.294  0.00  0.00    +0.010 A 
ATOM      5  C   LIG    1        3.161  -6.220   1.398  0.00  0.00    -0.050 A 
ATOM      6  C   LIG    1        3.155  -4.832   1.401  0.00  0.00    +0.150 A 
ATOM      7  S   LIG    1        4.669  -3.940   1.532  0.00  0.00    -0.940 S 
ENDROOT
BRANCH   1   9
ATOM      8  C   LIG    1        0.762  -2.018   1.233  0.00  0.00    -0.110 C 
ATOM      9  C   LIG    1        1.917  -2.666   1.319  0.00  0.00    +0.070 C 
BRANCH   8  10
ATOM     10  C   LIG    1        0.742  -0.511   1.242  0.00  0.00    +0.040 C 
BRANCH  10  12
ATOM     11  C   LIG    1       -0.019   1.526   0.010  0.00  0.00    +0.000 C 
ATOM     12  C   LIG    1        0.002  -0.004   0.002  0.00  0.00    +0.000 C 
ENDBRANCH  10  12
ENDBRANCH   8  10
ENDBRANCH   1   9
TORSDOF 3
ENDMDL
MODEL        2
REMARK  Name = ZINC001242255029
REMARK                            x       y       z     vdW  Elec       q    Type
REMARK                         _______ _______ _______ _____ _____    ______ ____
ROOT
ATOM      1  C   LIG    1       -2.033  -4.195   0.939  0.00  0.00    -0.060 A 
ATOM      2  C   LIG    1       -1.336  -4.880  -0.057  0.00  0.00    -0.060 A 
ATOM      3  C   LIG    1       -1.318  -6.261  -0.062  0.00  0.00    +0.000 A 
ATOM      4  C   LIG    1       -1.989  -6.969   0.916  0.00  0.00    -0.040 A 
ATOM      5  C   LIG    1       -2.688  -6.296   1.913  0.00  0.00    +0.130 A 
ATOM      6  S   LIG    1       -3.542  -7.205   3.157  0.00  0.00    -0.960 S 
ATOM      7  C   LIG    1       -2.706  -4.909   1.930  0.00  0.00    -0.020 A 
ENDROOT
BRANCH   1   9
ATOM      8  C   LIG    1       -1.413  -2.041   0.005  0.00  0.00    -0.070 C 
ATOM      9  C   LIG    1       -2.053  -2.717   0.948  0.00  0.00    +0.020 C 
BRANCH   8  10
ATOM     10  C   LIG    1       -1.433  -0.534   0.013  0.00  0.00    +0.040 C 
BRANCH  10  12
ATOM     11  C   LIG    1       -0.019   1.526   0.010  0.00  0.00    +0.000 C 
ATOM     12  C   LIG    1        0.002  -0.004   0.002  0.00  0.00    +0.000 C 
ENDBRANCH  10  12
ENDBRANCH   8  10
ENDBRANCH   1   9
TORSDOF 3
ENDMDL
MODEL        3
REMARK  Name = ZINC001205969578
REMARK                            x       y       z     vdW  Elec       q    Type
REMARK                         _______ _______ _______ _____ _____    ______ ____
ROOT
ATOM      1  O   LIG    1       -2.835  -4.011  -0.236  0.00  0.00    -0.380 OA
ENDROOT
BRANCH   1   2
ATOM      2  C   LIG    1       -4.132  -4.609  -0.236  0.00  0.00    +0.210 C 
ATOM      3  C   LIG    1       -4.652  -4.697  -1.672  0.00  0.00    -0.010 C 
BRANCH   2   4
ATOM      4  C   LIG    1       -4.047  -5.994   0.353  0.00  0.00    -0.180 C 
ATOM      5  C   LIG    1       -4.798  -6.472   1.413  0.00  0.00    -0.230 C 
ATOM      6  C   LIG    1       -4.405  -7.844   1.658  0.00  0.00    -0.180 C 
ATOM      7  C   LIG    1       -3.442  -8.167   0.760  0.00  0.00    -0.180 C 
ATOM      8  C   LIG    1       -3.209  -7.008  -0.077  0.00  0.00    -0.200 C 
ENDBRANCH   2   4
ENDBRANCH   1   2
BRANCH   1   9
ATOM      9  C   LIG    1       -2.851  -2.587  -0.110  0.00  0.00    +0.130 C 
BRANCH   9  10
ATOM     10  C   LIG    1       -1.416  -2.058  -0.121  0.00  0.00    +0.020 C 
BRANCH  10  11
ATOM     11  C   LIG    1       -1.433  -0.534   0.013  0.00  0.00    +0.010 C 
BRANCH  11  13
ATOM     12  C   LIG    1       -0.019   1.526   0.010  0.00  0.00    +0.000 C 
ATOM     13  C   LIG    1        0.002  -0.004   0.002  0.00  0.00    -0.030 C 
ATOM     14  C   LIG    1        0.742  -0.511   1.242  0.00  0.00    +0.010 C 
ENDBRANCH  11  13
ENDBRANCH  10  11
ENDBRANCH   9  10
ENDBRANCH   1   9
TORSDOF 6
ENDMDL
MODEL        4
REMARK  Name = ZINC001205969574
REMARK                            x       y       z     vdW  Elec       q    Type
REMARK                         _______ _______ _______ _____ _____    ______ ____
ROOT
ATOM      1  O   LIG    1       -2.835  -4.011  -0.236  0.00  0.00    -0.380 OA
ENDROOT
BRANCH   1   2
ATOM      2  C   LIG    1       -4.132  -4.609  -0.236  0.00  0.00    +0.210 C 
ATOM      3  C   LIG    1       -4.538  -4.948   1.199  0.00  0.00    -0.010 C 
BRANCH   2   4
ATOM      4  C   LIG    1       -4.104  -5.870  -1.061  0.00  0.00    -0.180 C 
ATOM      5  C   LIG    1       -4.931  -6.157  -2.134  0.00  0.00    -0.230 C 
ATOM      6  C   LIG    1       -4.572  -7.465  -2.640  0.00  0.00    -0.180 C 
ATOM      7  C   LIG    1       -3.552  -7.939  -1.881  0.00  0.00    -0.180 C 
ATOM      8  C   LIG    1       -3.241  -6.938  -0.882  0.00  0.00    -0.200 C 
ENDBRANCH   2   4
ENDBRANCH   1   2
BRANCH   1   9
ATOM      9  C   LIG    1       -2.851  -2.587  -0.110  0.00  0.00    +0.130 C 
BRANCH   9  10
ATOM     10  C   LIG    1       -1.416  -2.058  -0.121  0.00  0.00    +0.020 C 
BRANCH  10  11
ATOM     11  C   LIG    1       -1.433  -0.534   0.013  0.00  0.00    +0.010 C 
BRANCH  11  13
ATOM     12  C   LIG    1       -0.019   1.526   0.010  0.00  0.00    +0.000 C 
ATOM     13  C   LIG    1        0.002  -0.004   0.002  0.00  0.00    -0.030 C 
ATOM     14  C   LIG    1        0.742  -0.511   1.242  0.00  0.00    +0.010 C 
ENDBRANCH  11  13
ENDBRANCH  10  11
ENDBRANCH   9  10
ENDBRANCH   1   9
TORSDOF 6
ENDMDL
MODEL        5
REMARK  Name = ZINC001242757624
REMARK                            x       y       z     vdW  Elec       q    Type
REMARK                         _______ _______ _______ _____ _____    ______ ____
ROOT
ATOM      1  C   LIG    1       -1.117  -2.160   0.001  0.00  0.00    -0.160 A 
ATOM      2  C   LIG    1       -0.790  -2.861   1.163  0.00  0.00    +0.060 A 
ATOM      3  C   LIG    1       -0.772  -4.239   1.153  0.00  0.00    -0.040 A 
ATOM      4  C   LIG    1       -1.080  -4.933  -0.013  0.00  0.00    +0.160 A 
ATOM      5  C   LIG    1       -1.407  -4.238  -1.173  0.00  0.00    -0.070 A 
ATOM      6  S   LIG    1       -1.056  -6.694  -0.021  0.00  0.00    -0.930 S 
ATOM      7  C   LIG    1       -1.432  -2.859  -1.169  0.00  0.00    +0.120 A 
ATOM      8  F   LIG    1       -1.750  -2.184  -2.295  0.00  0.00    -0.150 F 
ENDROOT
BRANCH   1  11
ATOM      9  C   LIG    1       -0.018   1.503   0.010  0.00  0.00    +0.060 C 
ATOM     10  C   LIG    1        0.002  -0.004   0.002  0.00  0.00    -0.060 C 
ATOM     11  C   LIG    1       -1.137  -0.683   0.009  0.00  0.00    -0.070 C 
ATOM     12  C   LIG    1       -2.453   0.053   0.026  0.00  0.00    +0.070 C 
ENDBRANCH   1  11
TORSDOF 1
ENDMDL
MODEL        6
REMARK  Name = ZINC001242759751
REMARK                            x       y       z     vdW  Elec       q    Type
REMARK                         _______ _______ _______ _____ _____    ______ ____
ROOT
ATOM      1  C   LIG    1        0.615  -2.141   0.980  0.00  0.00    -0.070 A 
ATOM      2  C   LIG    1        1.473  -2.826   0.119  0.00  0.00    +0.000 A 
ATOM      3  C   LIG    1        1.487  -4.208   0.116  0.00  0.00    +0.020 A 
ATOM      4  C   LIG    1        0.652  -4.917   0.965  0.00  0.00    -0.010 A 
ATOM      5  C   LIG    1       -0.202  -4.250   1.822  0.00  0.00    -0.010 A 
ATOM      6  F   LIG    1        2.318  -4.870  -0.718  0.00  0.00    -0.160 F 
ATOM      7  C   LIG    1       -0.225  -2.862   1.841  0.00  0.00    +0.130 A 
ATOM      8  S   LIG    1       -1.313  -2.010   2.934  0.00  0.00    -0.920 S 
ENDROOT
BRANCH   1  11
ATOM      9  C   LIG    1       -0.018   1.503   0.010  0.00  0.00    +0.060 C 
ATOM     10  C   LIG    1        0.002  -0.004   0.002  0.00  0.00    -0.090 C 
ATOM     11  C   LIG    1        0.595  -0.665   0.988  0.00  0.00    -0.020 C 
ATOM     12  C   LIG    1        1.248   0.091   2.116  0.00  0.00    +0.070 C 
ENDBRANCH   1  11
TORSDOF 1
ENDMDL
MODEL        7
REMARK  Name = ZINC001242760047
REMARK                            x       y       z     vdW  Elec       q    Type
REMARK                         _______ _______ _______ _____ _____    ______ ____
ROOT
ATOM      1  C   LIG    1       -1.117  -2.160   0.001  0.00  0.00    -0.100 A 
ATOM      2  C   LIG    1       -0.603  -2.846  -1.100  0.00  0.00    +0.010 A 
ATOM      3  C   LIG    1       -0.585  -4.224  -1.106  0.00  0.00    -0.010 A 
ATOM      4  C   LIG    1       -1.079  -4.932  -0.017  0.00  0.00    +0.100 A 
ATOM      5  C   LIG    1       -1.593  -4.251   1.085  0.00  0.00    +0.060 A 
ATOM      6  F   LIG    1       -2.073  -4.942   2.142  0.00  0.00    -0.140 F 
ATOM      7  S   LIG    1       -1.055  -6.694  -0.028  0.00  0.00    -0.920 S 
ATOM      8  C   LIG    1       -1.608  -2.872   1.098  0.00  0.00    +0.000 A 
ENDROOT
BRANCH   1  11
ATOM      9  C   LIG    1       -0.018   1.503   0.010  0.00  0.00    +0.060 C 
ATOM     10  C   LIG    1        0.002  -0.004   0.002  0.00  0.00    -0.070 C 
ATOM     11  C   LIG    1       -1.137  -0.683   0.009  0.00  0.00    -0.070 C 
ATOM     12  C   LIG    1       -2.453   0.053   0.026  0.00  0.00    +0.070 C 
ENDBRANCH   1  11
TORSDOF 1
ENDMDL
MODEL        8
REMARK  Name = ZINC001242760845
REMARK                            x       y       z     vdW  Elec       q    Type
REMARK                         _______ _______ _______ _____ _____    ______ ____
ROOT
ATOM      1  C   LIG    1       -1.117  -2.160   0.001  0.00  0.00    -0.150 A 
ATOM      2  C   LIG    1       -0.790  -2.861   1.163  0.00  0.00    +0.050 A 
ATOM      3  C   LIG    1       -0.772  -4.239   1.153  0.00  0.00    -0.040 A 
ATOM      4  C   LIG    1       -1.080  -4.933  -0.013  0.00  0.00    +0.150 A 
ATOM      5  C   LIG    1       -1.407  -4.238  -1.173  0.00  0.00    -0.160 A 
ATOM      6  C   LIG    1       -1.740  -4.993  -2.434  0.00  0.00    +0.100 C 
ATOM      7  S   LIG    1       -1.056  -6.694  -0.021  0.00  0.00    -0.920 S 
ATOM      8  C   LIG    1       -1.432  -2.859  -1.169  0.00  0.00    +0.120 A 
ATOM      9  F   LIG    1       -1.750  -2.184  -2.295  0.00  0.00    -0.150 F 
ENDROOT
BRANCH   1  12
ATOM     10  C   LIG    1       -0.018   1.503   0.010  0.00  0.00    +0.060 C 
ATOM     11  C   LIG    1        0.002  -0.004   0.002  0.00  0.00    -0.060 C 
ATOM     12  C   LIG    1       -1.137  -0.683   0.009  0.00  0.00    -0.060 C 
ATOM     13  C   LIG    1       -2.453   0.053   0.026  0.00  0.00    +0.080 C 
ENDBRANCH   1  12
TORSDOF 1
ENDMDL
MODEL        9
REMARK  Name = ZINC001243061060
REMARK                            x       y       z     vdW  Elec       q    Type
REMARK                         _______ _______ _______ _____ _____    ______ ____
ROOT
ATOM      1  C   LIG    1       -2.513  -0.395   0.011  0.00  0.00    -0.090 A 
ATOM      2  C   LIG    1       -2.959   0.545   0.939  0.00  0.00    +0.020 A 
ATOM      3  C   LIG    1       -4.282   0.932   0.946  0.00  0.00    -0.040 A 
ATOM      4  C   LIG    1       -5.172   0.385   0.028  0.00  0.00    +0.140 A 
ATOM      5  C   LIG    1       -4.729  -0.552  -0.898  0.00  0.00    -0.040 A 
ATOM      6  S   LIG    1       -6.863   0.880   0.039  0.00  0.00    -0.950 S 
ATOM      7  C   LIG    1       -3.405  -0.938  -0.912  0.00  0.00    +0.030 A 
ENDROOT
BRANCH   1  10
ATOM      8  C   LIG    1       -0.018   1.503   0.010  0.00  0.00    +0.160 C 
ATOM      9  C   LIG    1        0.002  -0.004   0.002  0.00  0.00    -0.020 A 
ATOM     10  C   LIG    1       -1.089  -0.813   0.003  0.00  0.00    -0.110 A 
ATOM     11  C   LIG    1       -0.569  -2.184  -0.008  0.00  0.00    -0.050 A 
ATOM     12  C   LIG    1        0.771  -2.074  -0.014  0.00  0.00    +0.150 A 
ATOM     13  O   LIG    1        1.101  -0.773  -0.013  0.00  0.00    -0.190 OA
ENDBRANCH   1  10
TORSDOF 1
ENDMDL
MODEL       10
REMARK  Name = ZINC001243062829
REMARK                            x       y       z     vdW  Elec       q    Type
REMARK                         _______ _______ _______ _____ _____    ______ ____
ROOT
ATOM      1  C   LIG    1       -2.513  -0.395   0.011  0.00  0.00    -0.060 A 
ATOM      2  C   LIG    1       -3.321  -0.687   1.106  0.00  0.00    +0.010 A 
ATOM      3  C   LIG    1       -4.645  -0.297   1.110  0.00  0.00    -0.080 A 
ATOM      4  C   LIG    1       -5.175   0.384   0.028  0.00  0.00    -0.010 A 
ATOM      5  C   LIG    1       -4.383   0.680  -1.066  0.00  0.00    -0.040 A 
ATOM      6  C   LIG    1       -3.049   0.299  -1.080  0.00  0.00    +0.140 A 
ATOM      7  S   LIG    1       -2.037   0.675  -2.473  0.00  0.00    -0.930 S 
ENDROOT
BRANCH   1  10
ATOM      8  C   LIG    1       -0.018   1.503   0.010  0.00  0.00    +0.170 C 
ATOM      9  C   LIG    1        0.002  -0.004   0.002  0.00  0.00    +0.030 A 
ATOM     10  C   LIG    1       -1.089  -0.813   0.003  0.00  0.00    -0.110 A 
ATOM     11  C   LIG    1       -0.569  -2.184  -0.007  0.00  0.00    -0.060 A 
ATOM     12  C   LIG    1        0.771  -2.074  -0.013  0.00  0.00    +0.120 A 
ATOM     13  O   LIG    1        1.101  -0.773  -0.013  0.00  0.00    -0.190 OA
ENDBRANCH   1  10
TORSDOF 1
ENDMDL
MODEL       11
REMARK  Name = ZINC001243061250
REMARK                            x       y       z     vdW  Elec       q    Type
REMARK                         _______ _______ _______ _____ _____    ______ ____
ROOT
ATOM      1  C   LIG    1       -2.513  -0.395   0.012  0.00  0.00    -0.010 A 
ATOM      2  C   LIG    1       -2.960   0.544   0.940  0.00  0.00    -0.070 A 
ATOM      3  C   LIG    1       -4.285   0.932   0.948  0.00  0.00    +0.000 A 
ATOM      4  C   LIG    1       -5.173   0.392   0.038  0.00  0.00    -0.040 A 
ATOM      5  C   LIG    1       -4.736  -0.546  -0.892  0.00  0.00    +0.140 A 
ATOM      6  S   LIG    1       -5.872  -1.233  -2.051  0.00  0.00    -0.960 S 
ATOM      7  C   LIG    1       -3.405  -0.936  -0.910  0.00  0.00    -0.020 A 
ENDROOT
BRANCH   1  10
ATOM      8  C   LIG    1       -0.018   1.503   0.010  0.00  0.00    +0.160 C 
ATOM      9  C   LIG    1        0.002  -0.004   0.002  0.00  0.00    -0.010 A 
ATOM     10  C   LIG    1       -1.089  -0.813   0.003  0.00  0.00    -0.120 A 
ATOM     11  C   LIG    1       -0.569  -2.184  -0.008  0.00  0.00    -0.050 A 
ATOM     12  C   LIG    1        0.770  -2.073  -0.014  0.00  0.00    +0.150 A 
ATOM     13  O   LIG    1        1.101  -0.773  -0.013  0.00  0.00    -0.190 OA
ENDBRANCH   1  10
TORSDOF 1
ENDMDL
MODEL       12
REMARK  Name = ZINC001224669224
REMARK                            x       y       z     vdW  Elec       q    Type
REMARK                         _______ _______ _______ _____ _____    ______ ____
ROOT
ATOM      1  O   LIG    1       -4.168  -4.617   0.017  0.00  0.00    -0.380 OA
ENDROOT
BRANCH   1   2
ATOM      2  C   LIG    1       -4.261  -6.043   0.010  0.00  0.00    +0.210 C 
ATOM      3  C   LIG    1       -4.309  -6.545  -1.435  0.00  0.00    -0.010 C 
BRANCH   2   4
ATOM      4  C   LIG    1       -5.515  -6.468   0.730  0.00  0.00    -0.180 C 
ATOM      5  C   LIG    1       -5.579  -7.343   1.801  0.00  0.00    -0.230 C 
ATOM      6  C   LIG    1       -6.968  -7.476   2.190  0.00  0.00    -0.180 C 
ATOM      7  C   LIG    1       -7.707  -6.694   1.364  0.00  0.00    -0.180 C 
ATOM      8  C   LIG    1       -6.801  -6.046   0.439  0.00  0.00    -0.200 C 
ENDBRANCH   2   4
ENDBRANCH   1   2
BRANCH   1   9
ATOM      9  C   LIG    1       -2.827  -4.123   0.007  0.00  0.00    +0.130 C 
BRANCH   9  10
ATOM     10  C   LIG    1       -2.848  -2.593   0.015  0.00  0.00    +0.020 C 
BRANCH  10  11
ATOM     11  C   LIG    1       -1.413  -2.063   0.004  0.00  0.00    +0.000 C 
BRANCH  11  12
ATOM     12  C   LIG    1       -1.433  -0.534   0.013  0.00  0.00    +0.000 C 
BRANCH  12  14
ATOM     13  C   LIG    1       -0.019   1.526   0.010  0.00  0.00    +0.000 C 
ATOM     14  C   LIG    1        0.002  -0.004   0.002  0.00  0.00    -0.010 C 
ENDBRANCH  12  14
ENDBRANCH  11  12
ENDBRANCH  10  11
ENDBRANCH   9  10
ENDBRANCH   1   9
TORSDOF 7
ENDMDL
MODEL       13
REMARK  Name = ZINC001224669225
REMARK                            x       y       z     vdW  Elec       q    Type
REMARK                         _______ _______ _______ _____ _____    ______ ____
ROOT
ATOM      1  O   LIG    1       -4.168  -4.617   0.017  0.00  0.00    -0.380 OA
ENDROOT
BRANCH   1   2
ATOM      2  C   LIG    1       -4.261  -6.043   0.010  0.00  0.00    +0.210 C 
ATOM      3  C   LIG    1       -4.281  -6.560   1.450  0.00  0.00    -0.010 C 
BRANCH   2   4
ATOM      4  C   LIG    1       -5.529  -6.460  -0.690  0.00  0.00    -0.180 C 
ATOM      5  C   LIG    1       -5.615  -7.333  -1.762  0.00  0.00    -0.230 C 
ATOM      6  C   LIG    1       -7.010  -7.458  -2.128  0.00  0.00    -0.180 C 
ATOM      7  C   LIG    1       -7.732  -6.674  -1.289  0.00  0.00    -0.180 C 
ATOM      8  C   LIG    1       -6.809  -6.041  -0.370  0.00  0.00    -0.200 C 
ENDBRANCH   2   4
ENDBRANCH   1   2
BRANCH   1   9
ATOM      9  C   LIG    1       -2.827  -4.123   0.007  0.00  0.00    +0.130 C 
BRANCH   9  10
ATOM     10  C   LIG    1       -2.848  -2.593   0.015  0.00  0.00    +0.020 C 
BRANCH  10  11
ATOM     11  C   LIG    1       -1.413  -2.063   0.004  0.00  0.00    +0.000 C 
BRANCH  11  12
ATOM     12  C   LIG    1       -1.433  -0.534   0.013  0.00  0.00    +0.000 C 
BRANCH  12  14
ATOM     13  C   LIG    1       -0.019   1.526   0.010  0.00  0.00    +0.000 C 
ATOM     14  C   LIG    1        0.002  -0.004   0.002  0.00  0.00    -0.010 C 
ENDBRANCH  12  14
ENDBRANCH  11  12
ENDBRANCH  10  11
ENDBRANCH   9  10
ENDBRANCH   1   9
TORSDOF 7
ENDMDL
MODEL       14
REMARK  Name = ZINC001224725935
REMARK                            x       y       z     vdW  Elec       q    Type
REMARK                         _______ _______ _______ _____ _____    ______ ____
ROOT
ATOM      1  C   LIG    1       -0.019   1.526   0.010  0.00  0.00    -0.010 C 
ATOM      2  C   LIG    1        0.002  -0.004   0.002  0.00  0.00    +0.210 C 
ENDROOT
BRANCH   2   3
ATOM      3  C   LIG    1        0.707  -0.490  -1.238  0.00  0.00    -0.180 C 
ATOM      4  C   LIG    1        1.898  -1.196  -1.270  0.00  0.00    -0.230 C 
ATOM      5  C   LIG    1        2.223  -1.465  -2.655  0.00  0.00    -0.180 C 
ATOM      6  C   LIG    1        1.242  -0.927  -3.424  0.00  0.00    -0.180 C 
ATOM      7  C   LIG    1        0.274  -0.312  -2.541  0.00  0.00    -0.200 C 
ENDBRANCH   2   3
BRANCH   2   8
ATOM      8  O   LIG    1       -1.339  -0.499   0.012  0.00  0.00    -0.380 OA
BRANCH   8   9
ATOM      9  C   LIG    1       -1.871  -0.707   1.322  0.00  0.00    +0.140 C 
BRANCH   9  10
ATOM     10  C   LIG    1       -3.303  -1.234   1.212  0.00  0.00    +0.030 C 
BRANCH  10  11
ATOM     11  C   LIG    1       -3.874  -1.457   2.614  0.00  0.00    -0.070 C 
ATOM     12  C   LIG    1       -3.011  -2.477   3.359  0.00  0.00    +0.020 C 
ATOM     13  C   LIG    1       -5.306  -1.984   2.504  0.00  0.00    +0.010 C 
ATOM     14  C   LIG    1       -3.875  -0.133   3.380  0.00  0.00    +0.020 C 
ENDBRANCH  10  11
ENDBRANCH   9  10
ENDBRANCH   8   9
ENDBRANCH   2   8
TORSDOF 5
ENDMDL
MODEL       15
REMARK  Name = ZINC001224725937
REMARK                            x       y       z     vdW  Elec       q    Type
REMARK                         _______ _______ _______ _____ _____    ______ ____
ROOT
ATOM      1  C   LIG    1       -0.019   1.526   0.010  0.00  0.00    -0.010 C 
ATOM      2  C   LIG    1        0.002  -0.004   0.002  0.00  0.00    +0.210 C 
ENDROOT
BRANCH   2   3
ATOM      3  C   LIG    1       -1.412  -0.526   0.013  0.00  0.00    -0.180 C 
ATOM      4  C   LIG    1       -2.001  -1.252   1.034  0.00  0.00    -0.230 C 
ATOM      5  C   LIG    1       -3.362  -1.553   0.642  0.00  0.00    -0.180 C 
ATOM      6  C   LIG    1       -3.570  -1.015  -0.586  0.00  0.00    -0.180 C 
ATOM      7  C   LIG    1       -2.347  -0.356  -0.994  0.00  0.00    -0.200 C 
ENDBRANCH   2   3
BRANCH   2   8
ATOM      8  O   LIG    1        0.671  -0.465  -1.174  0.00  0.00    -0.380 OA
BRANCH   8   9
ATOM      9  C   LIG    1        2.080  -0.640  -1.010  0.00  0.00    +0.140 C 
BRANCH   9  10
ATOM     10  C   LIG    1        2.688  -1.133  -2.324  0.00  0.00    +0.030 C 
BRANCH  10  11
ATOM     11  C   LIG    1        4.197  -1.321  -2.149  0.00  0.00    -0.070 C 
ATOM     12  C   LIG    1        4.835   0.013  -1.760  0.00  0.00    +0.020 C 
ATOM     13  C   LIG    1        4.805  -1.814  -3.463  0.00  0.00    +0.010 C 
ATOM     14  C   LIG    1        4.458  -2.351  -1.048  0.00  0.00    +0.020 C 
ENDBRANCH  10  11
ENDBRANCH   9  10
ENDBRANCH   8   9
ENDBRANCH   2   8
TORSDOF 5
ENDMDL
MODEL       16
REMARK  Name = ZINC001225585513
REMARK                            x       y       z     vdW  Elec       q    Type
REMARK                         _______ _______ _______ _____ _____    ______ ____
ROOT
ATOM      1  C   LIG    1       -2.634   1.063   1.303  0.00  0.00    +0.100 A 
ATOM      2  C   LIG    1       -2.675   1.865   0.175  0.00  0.00    -0.090 A 
ATOM      3  C   LIG    1       -3.254   3.120   0.239  0.00  0.00    -0.050 A 
ATOM      4  C   LIG    1       -3.792   3.578   1.427  0.00  0.00    -0.040 A 
ATOM      5  C   LIG    1       -3.755   2.784   2.558  0.00  0.00    -0.020 A 
ATOM      6  C   LIG    1       -3.181   1.522   2.501  0.00  0.00    +0.110 A 
ATOM      7  S   LIG    1       -3.132   0.507   3.940  0.00  0.00    -0.940 S 
ENDROOT
BRANCH   1   8
ATOM      8  O   LIG    1       -2.066  -0.171   1.242  0.00  0.00    -0.270 OA
BRANCH   8   9
ATOM      9  C   LIG    1       -1.485  -0.556  -0.005  0.00  0.00    +0.140 C 
BRANCH   9  11
ATOM     10  C   LIG    1        0.195   1.291   0.085  0.00  0.00    +0.020 C 
ATOM     11  C   LIG    1        0.009  -0.225   0.003  0.00  0.00    +0.000 C 
ENDBRANCH   9  11
BRANCH   9  12
ATOM     12  C   LIG    1       -1.673  -2.061  -0.212  0.00  0.00    +0.020 C 
ATOM     13  C   LIG    1       -3.164  -2.375  -0.346  0.00  0.00    +0.020 C 
ENDBRANCH   9  12
ENDBRANCH   8   9
ENDBRANCH   1   8
TORSDOF 4
ENDMDL
MODEL       17
REMARK  Name = ZINC001225585139
REMARK                            x       y       z     vdW  Elec       q    Type
REMARK                         _______ _______ _______ _____ _____    ______ ____
ROOT
ATOM      1  C   LIG    1       -0.253  -3.772   1.185  0.00  0.00    +0.090 A 
ATOM      2  C   LIG    1       -0.165  -4.465  -0.011  0.00  0.00    -0.090 A 
ATOM      3  C   LIG    1        0.418  -5.719  -0.043  0.00  0.00    -0.050 A 
ATOM      4  C   LIG    1        0.913  -6.285   1.117  0.00  0.00    -0.030 A 
ATOM      5  C   LIG    1        0.829  -5.601   2.315  0.00  0.00    -0.020 A 
ATOM      6  C   LIG    1        0.251  -4.340   2.354  0.00  0.00    +0.110 A 
ATOM      7  S   LIG    1        0.142  -3.464   3.879  0.00  0.00    -0.940 S 
ENDROOT
BRANCH   1   8
ATOM      8  O   LIG    1       -0.825  -2.539   1.217  0.00  0.00    -0.270 OA
BRANCH   8   9
ATOM      9  C   LIG    1       -1.205  -1.966  -0.036  0.00  0.00    +0.130 C 
ATOM     10  C   LIG    1       -2.596  -2.470  -0.426  0.00  0.00    +0.000 C 
BRANCH   9  11
ATOM     11  C   LIG    1       -1.231  -0.441   0.087  0.00  0.00    +0.030 C 
BRANCH  11  13
ATOM     12  C   LIG    1        0.159   1.598   0.478  0.00  0.00    +0.000 C 
ATOM     13  C   LIG    1        0.185   0.073   0.355  0.00  0.00    +0.000 C 
ENDBRANCH  11  13
ENDBRANCH   9  11
ENDBRANCH   8   9
ENDBRANCH   1   8
TORSDOF 4
ENDMDL
MODEL       18
REMARK  Name = ZINC001225585138
REMARK                            x       y       z     vdW  Elec       q    Type
REMARK                         _______ _______ _______ _____ _____    ______ ____
ROOT
ATOM      1  C   LIG    1       -0.096  -3.657  -1.172  0.00  0.00    +0.090 A 
ATOM      2  C   LIG    1        0.010  -4.365   0.013  0.00  0.00    -0.090 A 
ATOM      3  C   LIG    1        0.775  -5.517   0.065  0.00  0.00    -0.050 A 
ATOM      4  C   LIG    1        1.436  -5.964  -1.063  0.00  0.00    -0.030 A 
ATOM      5  C   LIG    1        1.335  -5.263  -2.251  0.00  0.00    -0.020 A 
ATOM      6  C   LIG    1        0.565  -4.111  -2.312  0.00  0.00    +0.110 A 
ATOM      7  S   LIG    1        0.435  -3.215  -3.824  0.00  0.00    -0.940 S 
ENDROOT
BRANCH   1   8
ATOM      8  O   LIG    1       -0.849  -2.526  -1.224  0.00  0.00    -0.270 OA
BRANCH   8   9
ATOM      9  C   LIG    1       -1.405  -2.058   0.006  0.00  0.00    +0.130 C 
ATOM     10  C   LIG    1       -2.724  -2.785   0.277  0.00  0.00    +0.000 C 
BRANCH   9  11
ATOM     11  C   LIG    1       -1.662  -0.553  -0.089  0.00  0.00    +0.030 C 
BRANCH  11  13
ATOM     12  C   LIG    1       -0.585   1.688  -0.330  0.00  0.00    +0.000 C 
ATOM     13  C   LIG    1       -0.329   0.183  -0.235  0.00  0.00    +0.000 C 
ENDBRANCH  11  13
ENDBRANCH   9  11
ENDBRANCH   8   9
ENDBRANCH   1   8
TORSDOF 4
ENDMDL
MODEL       19
REMARK  Name = ZINC001210059719
REMARK                            x       y       z     vdW  Elec       q    Type
REMARK                         _______ _______ _______ _____ _____    ______ ____
ROOT
ATOM      1  N   LIG    1        0.273  -4.054  -2.308  0.00  0.00    -0.660 N 
ATOM      2  H   LIG    1        0.642  -4.539  -1.553  0.00  0.00    +0.420 HD
ENDROOT
BRANCH   1   3
ATOM      3  C   LIG    1       -0.240  -4.755  -3.406  0.00  0.00    +0.150 A 
ATOM      4  C   LIG    1       -0.762  -4.065  -4.489  0.00  0.00    -0.060 A 
ATOM      5  C   LIG    1       -1.269  -4.760  -5.572  0.00  0.00    -0.030 A 
ATOM      6  C   LIG    1       -1.256  -6.142  -5.580  0.00  0.00    -0.030 A 
ATOM      7  C   LIG    1       -0.738  -6.839  -4.504  0.00  0.00    -0.010 A 
ATOM      8  C   LIG    1       -0.222  -6.151  -3.416  0.00  0.00    +0.080 A 
ATOM      9  S   LIG    1        0.440  -7.036  -2.043  0.00  0.00    -0.950 S 
ENDBRANCH   1   3
BRANCH   1  11
ATOM     10  C   LIG    1        0.739  -2.004  -1.265  0.00  0.00    -0.200 C 
ATOM     11  C   LIG    1        0.255  -2.666  -2.300  0.00  0.00    +0.250 C 
BRANCH  10  12
ATOM     12  C   LIG    1        0.718  -0.497  -1.257  0.00  0.00    +0.060 C 
BRANCH  12  14
ATOM     13  C   LIG    1       -0.019   1.526   0.010  0.00  0.00    +0.000 C 
ATOM     14  C   LIG    1        0.002  -0.004   0.002  0.00  0.00    +0.000 C 
ENDBRANCH  12  14
ENDBRANCH  10  12
ENDBRANCH   1  11
TORSDOF 4
ENDMDL
MODEL       20
REMARK  Name = ZINC001210060562
REMARK                            x       y       z     vdW  Elec       q    Type
REMARK                         _______ _______ _______ _____ _____    ______ ____
ROOT
ATOM      1  N   LIG    1        0.273  -4.054  -2.308  0.00  0.00    -0.680 N 
ATOM      2  H   LIG    1        0.642  -4.539  -1.553  0.00  0.00    +0.400 HD
ENDROOT
BRANCH   1   3
ATOM      3  C   LIG    1       -0.240  -4.755  -3.406  0.00  0.00    +0.110 A 
ATOM      4  C   LIG    1       -0.763  -4.062  -4.490  0.00  0.00    -0.050 A 
ATOM      5  C   LIG    1       -1.269  -4.753  -5.572  0.00  0.00    +0.000 A 
ATOM      6  C   LIG    1       -1.255  -6.142  -5.578  0.00  0.00    +0.110 A 
ATOM      7  C   LIG    1       -0.732  -6.836  -4.494  0.00  0.00    +0.000 A 
ATOM      8  S   LIG    1       -1.901  -7.025  -6.960  0.00  0.00    -0.960 S 
ATOM      9  C   LIG    1       -0.221  -6.144  -3.413  0.00  0.00    -0.040 A 
ENDBRANCH   1   3
BRANCH   1  11
ATOM     10  C   LIG    1        0.739  -2.004  -1.265  0.00  0.00    -0.200 C 
ATOM     11  C   LIG    1        0.255  -2.665  -2.300  0.00  0.00    +0.260 C 
BRANCH  10  12
ATOM     12  C   LIG    1        0.718  -0.497  -1.257  0.00  0.00    +0.060 C 
BRANCH  12  14
ATOM     13  C   LIG    1       -0.019   1.526   0.010  0.00  0.00    +0.000 C 
ATOM     14  C   LIG    1        0.002  -0.004   0.002  0.00  0.00    +0.000 C 
ENDBRANCH  12  14
ENDBRANCH  10  12
ENDBRANCH   1  11
TORSDOF 4
ENDMDL
MODEL       21
REMARK  Name = ZINC001226014346
REMARK                            x       y       z     vdW  Elec       q    Type
REMARK                         _______ _______ _______ _____ _____    ______ ____
ROOT
ATOM      1  C   LIG    1       -0.836  -3.768  -0.886  0.00  0.00    +0.140 A 
ATOM      2  C   LIG    1       -2.083  -4.353  -1.055  0.00  0.00    -0.100 A 
ATOM      3  C   LIG    1       -2.327  -5.620  -0.561  0.00  0.00    +0.040 A 
ATOM      4  C   LIG    1       -1.331  -6.309   0.103  0.00  0.00    -0.070 A 
ATOM      5  C   LIG    1       -0.080  -5.729   0.276  0.00  0.00    +0.170 A 
ATOM      6  S   LIG    1        1.191  -6.607   1.123  0.00  0.00    -0.950 S 
ATOM      7  C   LIG    1        0.168  -4.457  -0.225  0.00  0.00    -0.120 A 
ENDROOT
BRANCH   1   8
ATOM      8  O   LIG    1       -0.598  -2.521  -1.373  0.00  0.00    -0.320 OA
BRANCH   8   9
ATOM      9  C   LIG    1        0.668  -1.935  -1.064  0.00  0.00    +0.150 C 
ATOM     10  C   LIG    1        1.710  -2.405  -2.081  0.00  0.00    +0.020 C 
BRANCH   9  11
ATOM     11  C   LIG    1        0.552  -0.411  -1.120  0.00  0.00    +0.040 C 
BRANCH  11  13
ATOM     12  C   LIG    1       -0.512   1.594  -0.076  0.00  0.00    +0.000 C 
ATOM     13  C   LIG    1       -0.395   0.070  -0.019  0.00  0.00    +0.000 C 
ENDBRANCH  11  13
ENDBRANCH   9  11
ENDBRANCH   8   9
ENDBRANCH   1   8
TORSDOF 4
ENDMDL
MODEL       22
REMARK  Name = ZINC001226017365
REMARK                            x       y       z     vdW  Elec       q    Type
REMARK                         _______ _______ _______ _____ _____    ______ ____
ROOT
ATOM      1  C   LIG    1        2.419   1.129   1.630  0.00  0.00    +0.140 A 
ATOM      2  C   LIG    1        3.709   1.621   1.493  0.00  0.00    -0.110 A 
ATOM      3  C   LIG    1        4.023   2.885   1.957  0.00  0.00    +0.040 A 
ATOM      4  C   LIG    1        3.053   3.663   2.558  0.00  0.00    -0.080 A 
ATOM      5  C   LIG    1        1.758   3.176   2.698  0.00  0.00    +0.170 A 
ATOM      6  S   LIG    1        0.520   4.168   3.465  0.00  0.00    -0.950 S 
ATOM      7  C   LIG    1        1.441   1.908   2.227  0.00  0.00    -0.110 A 
ENDROOT
BRANCH   1   8
ATOM      8  O   LIG    1        2.113  -0.114   1.173  0.00  0.00    -0.310 OA
BRANCH   8   9
ATOM      9  C   LIG    1        0.751  -0.529   1.286  0.00  0.00    +0.160 C 
BRANCH   9  11
ATOM     10  C   LIG    1       -0.043   1.300  -0.220  0.00  0.00    +0.010 C 
ATOM     11  C   LIG    1        0.012  -0.216  -0.016  0.00  0.00    +0.000 C 
ENDBRANCH   9  11
BRANCH   9  12
ATOM     12  C   LIG    1        0.697  -2.035   1.553  0.00  0.00    +0.020 C 
ATOM     13  C   LIG    1        1.326  -2.334   2.916  0.00  0.00    +0.010 C 
ENDBRANCH   9  12
ENDBRANCH   8   9
ENDBRANCH   1   8
TORSDOF 4
ENDMDL
MODEL       23
REMARK  Name = ZINC001226016333
REMARK                            x       y       z     vdW  Elec       q    Type
REMARK                         _______ _______ _______ _____ _____    ______ ____
ROOT
ATOM      1  C   LIG    1        1.125  -3.649   0.430  0.00  0.00    +0.140 A 
ATOM      2  C   LIG    1        1.780  -4.105   1.565  0.00  0.00    -0.100 A 
ATOM      3  C   LIG    1        1.371  -5.274   2.179  0.00  0.00    +0.040 A 
ATOM      4  C   LIG    1        0.309  -5.992   1.665  0.00  0.00    -0.070 A 
ATOM      5  C   LIG    1       -0.351  -5.540   0.528  0.00  0.00    +0.170 A 
ATOM      6  S   LIG    1       -1.705  -6.456  -0.129  0.00  0.00    -0.950 S 
ATOM      7  C   LIG    1        0.056  -4.363  -0.086  0.00  0.00    -0.120 A 
ENDROOT
BRANCH   1   8
ATOM      8  O   LIG    1        1.529  -2.499  -0.172  0.00  0.00    -0.320 OA
BRANCH   8   9
ATOM      9  C   LIG    1        0.734  -2.023  -1.260  0.00  0.00    +0.150 C 
ATOM     10  C   LIG    1        1.172  -2.716  -2.552  0.00  0.00    +0.020 C 
BRANCH   9  11
ATOM     11  C   LIG    1        0.921  -0.511  -1.404  0.00  0.00    +0.040 C 
BRANCH  11  13
ATOM     12  C   LIG    1        0.554   1.703  -0.307  0.00  0.00    +0.000 C 
ATOM     13  C   LIG    1        0.368   0.192  -0.163  0.00  0.00    +0.000 C 
ENDBRANCH  11  13
ENDBRANCH   9  11
ENDBRANCH   8   9
ENDBRANCH   1   8
TORSDOF 4
ENDMDL
MODEL       24
REMARK  Name = ZINC001249926706
REMARK                            x       y       z     vdW  Elec       q    Type
REMARK                         _______ _______ _______ _____ _____    ______ ____
ROOT
ATOM      1  C   LIG    1        2.132   0.024  -1.268  0.00  0.00    -0.070 A 
ATOM      2  C   LIG    1        2.414   1.242  -1.858  0.00  0.00    -0.080 A 
ATOM      3  C   LIG    1        3.710   1.725  -1.869  0.00  0.00    -0.010 A 
ATOM      4  C   LIG    1        4.727   0.992  -1.292  0.00  0.00    -0.050 A 
ATOM      5  C   LIG    1        4.447  -0.233  -0.697  0.00  0.00    +0.140 A 
ATOM      6  S   LIG    1        5.742  -1.172   0.041  0.00  0.00    -0.960 S 
ATOM      7  C   LIG    1        3.143  -0.713  -0.683  0.00  0.00    -0.030 A 
ENDROOT
BRANCH   1   8
ATOM      8  C   LIG    1        0.718  -0.497  -1.257  0.00  0.00    +0.060 C 
BRANCH   8  10
ATOM      9  C   LIG    1       -0.019   1.526   0.010  0.00  0.00    +0.030 C 
ATOM     10  C   LIG    1        0.002  -0.004   0.002  0.00  0.00    -0.060 C 
ATOM     11  C   LIG    1       -1.433  -0.534   0.013  0.00  0.00    +0.010 C 
ATOM     12  C   LIG    1        0.742  -0.511   1.242  0.00  0.00    +0.030 C 
ENDBRANCH   8  10
ENDBRANCH   1   8
TORSDOF 2
ENDMDL
MODEL       25
REMARK  Name = ZINC001239510400
REMARK                            x       y       z     vdW  Elec       q    Type
REMARK                         _______ _______ _______ _____ _____    ______ ____
ROOT
ATOM      1  S   LIG    1        0.002  -0.004   0.002  0.00  0.00    -0.930 S 
ATOM      2  C   LIG    1       -0.022   1.758   0.012  0.00  0.00    +0.140 A 
ATOM      3  C   LIG    1       -1.231   2.438   0.033  0.00  0.00    -0.040 A 
ATOM      4  C   LIG    1       -1.247   3.820   0.040  0.00  0.00    +0.010 A 
ATOM      5  C   LIG    1       -0.061   4.532   0.027  0.00  0.00    -0.070 A 
ATOM      6  C   LIG    1        1.150   3.869   0.006  0.00  0.00    +0.020 A 
ATOM      7  C   LIG    1        1.180   2.477   0.004  0.00  0.00    -0.080 A 
ENDROOT
BRANCH   7   8
ATOM      8  C   LIG    1        2.478   1.760  -0.018  0.00  0.00    +0.000 A 
ATOM      9  C   LIG    1        3.455   2.049  -0.898  0.00  0.00    -0.070 A 
ATOM     10  S   LIG    1        4.832   0.993  -0.614  0.00  0.00    +0.030 S 
ATOM     11  C   LIG    1        3.995   0.197   0.711  0.00  0.00    -0.080 A 
ATOM     12  C   LIG    1        2.789   0.735   0.873  0.00  0.00    +0.090 A 
ENDBRANCH   7   8
TORSDOF 1
ENDMDL
MODEL       26
REMARK  Name = ZINC001239510357
REMARK                            x       y       z     vdW  Elec       q    Type
REMARK                         _______ _______ _______ _____ _____    ______ ____
ROOT
ATOM      1  S   LIG    1        0.002  -0.004   0.002  0.00  0.00    -0.950 S 
ATOM      2  C   LIG    1       -0.022   1.758   0.012  0.00  0.00    +0.130 A 
ATOM      3  C   LIG    1       -1.235   2.437   0.033  0.00  0.00    -0.030 A 
ATOM      4  C   LIG    1       -1.257   3.819   0.040  0.00  0.00    +0.000 A 
ATOM      5  C   LIG    1       -0.075   4.532   0.027  0.00  0.00    -0.060 A 
ATOM      6  C   LIG    1        1.146   3.860   0.005  0.00  0.00    -0.030 A 
ATOM      7  C   LIG    1        1.170   2.468   0.004  0.00  0.00    -0.020 A 
ENDROOT
BRANCH   6   8
ATOM      8  C   LIG    1        2.416   4.626  -0.009  0.00  0.00    -0.040 A 
ATOM      9  C   LIG    1        2.456   5.971   0.004  0.00  0.00    -0.050 A 
ATOM     10  S   LIG    1        4.130   6.511  -0.020  0.00  0.00    +0.070 S 
ATOM     11  C   LIG    1        4.702   4.849  -0.045  0.00  0.00    -0.050 A 
ATOM     12  C   LIG    1        3.667   4.012  -0.030  0.00  0.00    +0.030 A 
ENDBRANCH   6   8
TORSDOF 1
ENDMDL
MODEL       27
REMARK  Name = ZINC001239786377
REMARK                            x       y       z     vdW  Elec       q    Type
REMARK                         _______ _______ _______ _____ _____    ______ ____
ROOT
ATOM      1  S   LIG    1        0.002  -0.004   0.002  0.00  0.00    -0.950 S 
ATOM      2  C   LIG    1       -0.022   1.758   0.012  0.00  0.00    +0.140 A 
ATOM      3  C   LIG    1       -1.237   2.436   0.033  0.00  0.00    -0.040 A 
ATOM      4  C   LIG    1       -1.258   3.813   0.040  0.00  0.00    +0.020 A 
ATOM      5  C   LIG    1       -0.059   4.529   0.026  0.00  0.00    -0.120 A 
ATOM      6  C   LIG    1        1.158   3.846   0.006  0.00  0.00    +0.020 A 
ATOM      7  C   LIG    1        1.174   2.468   0.004  0.00  0.00    -0.040 A 
ENDROOT
BRANCH   5   8
ATOM      8  C   LIG    1       -0.080   6.006   0.035  0.00  0.00    -0.060 C 
ATOM      9  C   LIG    1       -0.530   6.745   1.034  0.00  0.00    -0.070 C 
ATOM     10  C   LIG    1       -0.405   8.216   0.713  0.00  0.00    +0.040 C 
ATOM     11  C   LIG    1        0.586   8.280  -0.472  0.00  0.00    +0.020 C 
ATOM     12  C   LIG    1        0.418   6.877  -1.095  0.00  0.00    +0.050 C 
ENDBRANCH   5   8
TORSDOF 1
ENDMDL
MODEL       28
REMARK  Name = ZINC001239787348
REMARK                            x       y       z     vdW  Elec       q    Type
REMARK                         _______ _______ _______ _____ _____    ______ ____
ROOT
ATOM      1  S   LIG    1        0.002  -0.004   0.002  0.00  0.00    -0.960 S 
ATOM      2  C   LIG    1       -0.022   1.758   0.012  0.00  0.00    +0.130 A 
ATOM      3  C   LIG    1       -1.235   2.437   0.033  0.00  0.00    -0.040 A 
ATOM      4  C   LIG    1       -1.258   3.819   0.041  0.00  0.00    +0.000 A 
ATOM      5  C   LIG    1       -0.078   4.534   0.028  0.00  0.00    -0.070 A 
ATOM      6  C   LIG    1        1.145   3.862   0.007  0.00  0.00    -0.040 A 
ATOM      7  C   LIG    1        1.170   2.468   0.004  0.00  0.00    -0.020 A 
ENDROOT
BRANCH   6   8
ATOM      8  C   LIG    1        2.411   4.626  -0.007  0.00  0.00    -0.070 C 
ATOM      9  C   LIG    1        2.832   5.397   0.979  0.00  0.00    -0.060 C 
ATOM     10  C   LIG    1        4.162   6.029   0.637  0.00  0.00    +0.050 C 
ATOM     11  C   LIG    1        4.703   5.195  -0.547  0.00  0.00    +0.020 C 
ATOM     12  C   LIG    1        3.400   4.625  -1.150  0.00  0.00    +0.050 C 
ENDBRANCH   6   8
TORSDOF 1
ENDMDL
MODEL       29
REMARK  Name = ZINC001239788462
REMARK                            x       y       z     vdW  Elec       q    Type
REMARK                         _______ _______ _______ _____ _____    ______ ____
ROOT
ATOM      1  F   LIG    1        0.002  -0.004   0.002  0.00  0.00    -0.150 F 
ATOM      2  C   LIG    1       -0.016   1.347   0.009  0.00  0.00    +0.120 A 
ATOM      3  C   LIG    1       -1.220   2.022   0.030  0.00  0.00    -0.070 A 
ATOM      4  C   LIG    1       -1.238   3.412   0.037  0.00  0.00    +0.160 A 
ATOM      5  C   LIG    1       -0.044   4.127   0.024  0.00  0.00    -0.040 A 
ATOM      6  C   LIG    1        1.161   3.459   0.003  0.00  0.00    +0.060 A 
ATOM      7  S   LIG    1       -2.776   4.271   0.064  0.00  0.00    -0.930 S 
ATOM      8  C   LIG    1        1.185   2.064   0.002  0.00  0.00    -0.150 A 
ENDROOT
BRANCH   8   9
ATOM      9  C   LIG    1        2.475   1.346  -0.021  0.00  0.00    -0.060 C 
ATOM     10  C   LIG    1        3.283   1.222   1.019  0.00  0.00    -0.050 C 
ATOM     11  C   LIG    1        4.516   0.428   0.650  0.00  0.00    +0.050 C 
ATOM     12  C   LIG    1        4.147  -0.281  -0.673  0.00  0.00    +0.020 C 
ATOM     13  C   LIG    1        3.048   0.648  -1.232  0.00  0.00    +0.050 C 
ENDBRANCH   8   9
TORSDOF 1
ENDMDL
MODEL       30
REMARK  Name = ZINC001239789235
REMARK                            x       y       z     vdW  Elec       q    Type
REMARK                         _______ _______ _______ _____ _____    ______ ____
ROOT
ATOM      1  F   LIG    1        0.002  -0.004   0.002  0.00  0.00    -0.140 F 
ATOM      2  C   LIG    1       -0.016   1.347   0.009  0.00  0.00    +0.060 A 
ATOM      3  C   LIG    1       -1.220   2.020   0.030  0.00  0.00    +0.000 A 
ATOM      4  C   LIG    1       -1.237   3.416   0.038  0.00  0.00    -0.090 A 
ATOM      5  C   LIG    1       -0.036   4.127   0.025  0.00  0.00    +0.010 A 
ATOM      6  C   LIG    1        1.165   3.449   0.004  0.00  0.00    -0.010 A 
ATOM      7  C   LIG    1        1.181   2.059   0.002  0.00  0.00    +0.100 A 
ATOM      8  S   LIG    1        2.717   1.198  -0.024  0.00  0.00    -0.920 S 
ENDROOT
BRANCH   4   9
ATOM      9  C   LIG    1       -2.524   4.140   0.061  0.00  0.00    -0.070 C 
ATOM     10  C   LIG    1       -3.387   4.107   1.062  0.00  0.00    -0.060 C 
ATOM     11  C   LIG    1       -4.597   4.959   0.758  0.00  0.00    +0.050 C 
ATOM     12  C   LIG    1       -4.157   5.865  -0.414  0.00  0.00    +0.020 C 
ATOM     13  C   LIG    1       -3.031   5.025  -1.055  0.00  0.00    +0.050 C 
ENDBRANCH   4   9
TORSDOF 1
ENDMDL
MODEL       31
REMARK  Name = ZINC001239788569
REMARK                            x       y       z     vdW  Elec       q    Type
REMARK                         _______ _______ _______ _____ _____    ______ ____
ROOT
ATOM      1  F   LIG    1        0.002  -0.004   0.002  0.00  0.00    -0.160 F 
ATOM      2  C   LIG    1       -0.016   1.347   0.009  0.00  0.00    +0.020 A 
ATOM      3  C   LIG    1       -1.227   2.021   0.030  0.00  0.00    -0.010 A 
ATOM      4  C   LIG    1       -1.258   3.402   0.039  0.00  0.00    -0.010 A 
ATOM      5  C   LIG    1       -0.073   4.124   0.026  0.00  0.00    +0.130 A 
ATOM      6  C   LIG    1        1.155   3.446   0.005  0.00  0.00    -0.060 A 
ATOM      7  S   LIG    1       -0.110   5.885   0.037  0.00  0.00    -0.920 S 
ATOM      8  C   LIG    1        1.173   2.051   0.002  0.00  0.00    +0.000 A 
ENDROOT
BRANCH   6   9
ATOM      9  C   LIG    1        2.421   4.204  -0.009  0.00  0.00    -0.050 C 
ATOM     10  C   LIG    1        2.903   4.843  -1.063  0.00  0.00    -0.030 C 
ATOM     11  C   LIG    1        4.216   5.513  -0.730  0.00  0.00    +0.030 C 
ATOM     12  C   LIG    1        4.264   5.544   0.815  0.00  0.00    +0.010 C 
ATOM     13  C   LIG    1        3.340   4.362   1.181  0.00  0.00    +0.050 C 
ENDBRANCH   6   9
TORSDOF 1
ENDMDL
MODEL       32
REMARK  Name = ZINC001240636068
REMARK                            x       y       z     vdW  Elec       q    Type
REMARK                         _______ _______ _______ _____ _____    ______ ____
ROOT
ATOM      1  C   LIG    1       -2.399   0.078   0.113  0.00  0.00    -0.160 A 
ATOM      2  C   LIG    1       -2.435   1.458  -0.093  0.00  0.00    +0.050 A 
ATOM      3  C   LIG    1       -3.641   2.125  -0.075  0.00  0.00    -0.040 A 
ATOM      4  C   LIG    1       -4.822   1.425   0.148  0.00  0.00    +0.160 A 
ATOM      5  C   LIG    1       -4.792   0.050   0.354  0.00  0.00    -0.070 A 
ATOM      6  S   LIG    1       -6.361   2.283   0.170  0.00  0.00    -0.930 S 
ATOM      7  C   LIG    1       -3.588  -0.625   0.332  0.00  0.00    +0.120 A 
ATOM      8  F   LIG    1       -3.558  -1.961   0.533  0.00  0.00    -0.150 F 
ENDROOT
BRANCH   1  11
ATOM      9  C   LIG    1       -0.490   0.691  -1.875  0.00  0.00    +0.070 C 
ATOM     10  C   LIG    1       -0.237  -0.413  -0.880  0.00  0.00    -0.140 C 
ATOM     11  C   LIG    1       -1.108  -0.639   0.095  0.00  0.00    +0.010 C 
ATOM     12  C   LIG    1        1.005  -1.259  -0.993  0.00  0.00    +0.070 C 
ENDBRANCH   1  11
TORSDOF 1
ENDMDL
MODEL       33
REMARK  Name = ZINC001204938704
REMARK                            x       y       z     vdW  Elec       q    Type
REMARK                         _______ _______ _______ _____ _____    ______ ____
ROOT
ATOM      1  O   LIG    1        0.597  -2.351  -2.464  0.00  0.00    -0.360 OA
ENDROOT
BRANCH   1   2
ATOM      2  C   LIG    1        0.124  -3.698  -2.542  0.00  0.00    +0.190 C 
ATOM      3  C   LIG    1        1.041  -4.608  -1.722  0.00  0.00    -0.010 C 
BRANCH   2   4
ATOM      4  C   LIG    1        0.125  -4.148  -3.980  0.00  0.00    -0.180 C 
ATOM      5  C   LIG    1       -0.963  -4.652  -4.673  0.00  0.00    -0.240 C 
ATOM      6  C   LIG    1       -0.533  -4.960  -6.021  0.00  0.00    -0.180 C 
ATOM      7  C   LIG    1        0.783  -4.644  -6.120  0.00  0.00    -0.180 C 
ATOM      8  C   LIG    1        1.211  -4.123  -4.838  0.00  0.00    -0.200 C 
ENDBRANCH   2   4
ENDBRANCH   1   2
BRANCH   1   9
ATOM      9  C   LIG    1        0.046  -1.603  -1.379  0.00  0.00    +0.130 C 
BRANCH   9  10
ATOM     10  C   LIG    1        0.619  -0.185  -1.393  0.00  0.00    -0.010 C 
BRANCH  10  12
ATOM     11  C   LIG    1        0.395   2.110  -0.432  0.00  0.00    +0.010 C 
ATOM     12  C   LIG    1       -0.089   0.662  -0.334  0.00  0.00    +0.000 C 
ENDBRANCH  10  12
BRANCH  10  13
ATOM     13  C   LIG    1        2.117  -0.237  -1.086  0.00  0.00    -0.010 C 
ATOM     14  C   LIG    1        2.848  -0.945  -2.230  0.00  0.00    +0.020 C 
ENDBRANCH  10  13
ENDBRANCH   9  10
ENDBRANCH   1   9
TORSDOF 6
ENDMDL
MODEL       34
REMARK  Name = ZINC001204938711
REMARK                            x       y       z     vdW  Elec       q    Type
REMARK                         _______ _______ _______ _____ _____    ______ ____
ROOT
ATOM      1  O   LIG    1        0.600  -2.350  -2.466  0.00  0.00    -0.360 OA
ENDROOT
BRANCH   1   2
ATOM      2  C   LIG    1        0.128  -3.697  -2.545  0.00  0.00    +0.190 C 
ATOM      3  C   LIG    1       -1.126  -3.747  -3.421  0.00  0.00    -0.010 C 
BRANCH   2   4
ATOM      4  C   LIG    1        1.198  -4.569  -3.149  0.00  0.00    -0.180 C 
ATOM      5  C   LIG    1        1.720  -5.721  -2.586  0.00  0.00    -0.230 C 
ATOM      6  C   LIG    1        2.720  -6.250  -3.489  0.00  0.00    -0.180 C 
ATOM      7  C   LIG    1        2.786  -5.425  -4.564  0.00  0.00    -0.180 C 
ATOM      8  C   LIG    1        1.824  -4.361  -4.366  0.00  0.00    -0.200 C 
ENDBRANCH   2   4
ENDBRANCH   1   2
BRANCH   1   9
ATOM      9  C   LIG    1        0.047  -1.604  -1.380  0.00  0.00    +0.130 C 
BRANCH   9  10
ATOM     10  C   LIG    1        0.620  -0.185  -1.393  0.00  0.00    -0.020 C 
BRANCH  10  12
ATOM     11  C   LIG    1        0.394   2.110  -0.431  0.00  0.00    +0.010 C 
ATOM     12  C   LIG    1       -0.089   0.661  -0.334  0.00  0.00    +0.000 C 
ENDBRANCH  10  12
BRANCH  10  13
ATOM     13  C   LIG    1        2.118  -0.236  -1.086  0.00  0.00    -0.010 C 
ATOM     14  C   LIG    1        2.849  -0.942  -2.229  0.00  0.00    +0.030 C 
ENDBRANCH  10  13
ENDBRANCH   9  10
ENDBRANCH   1   9
TORSDOF 6
ENDMDL
MODEL       35
REMARK  Name = ZINC001240639844
REMARK                            x       y       z     vdW  Elec       q    Type
REMARK                         _______ _______ _______ _____ _____    ______ ____
ROOT
ATOM      1  C   LIG    1       -2.448  -0.010   0.111  0.00  0.00    -0.100 A 
ATOM      2  C   LIG    1       -2.484   1.370  -0.098  0.00  0.00    +0.020 A 
ATOM      3  C   LIG    1       -3.690   2.038  -0.084  0.00  0.00    -0.010 A 
ATOM      4  C   LIG    1       -4.871   1.339   0.137  0.00  0.00    +0.100 A 
ATOM      5  C   LIG    1       -4.839  -0.038   0.345  0.00  0.00    +0.050 A 
ATOM      6  F   LIG    1       -5.989  -0.715   0.560  0.00  0.00    -0.140 F 
ATOM      7  S   LIG    1       -6.410   2.196   0.154  0.00  0.00    -0.920 S 
ATOM      8  C   LIG    1       -3.636  -0.712   0.327  0.00  0.00    +0.000 A 
ENDROOT
BRANCH   1  11
ATOM      9  C   LIG    1       -0.245   1.054   1.520  0.00  0.00    +0.070 C 
ATOM     10  C   LIG    1       -0.097  -0.197   0.693  0.00  0.00    -0.140 C 
ATOM     11  C   LIG    1       -1.157  -0.727   0.097  0.00  0.00    +0.010 C 
ATOM     12  C   LIG    1        1.255  -0.845   0.542  0.00  0.00    +0.070 C 
ENDBRANCH   1  11
TORSDOF 1
ENDMDL
MODEL       36
REMARK  Name = ZINC001240640169
REMARK                            x       y       z     vdW  Elec       q    Type
REMARK                         _______ _______ _______ _____ _____    ______ ____
ROOT
ATOM      1  C   LIG    1       -2.423   0.034   0.126  0.00  0.00    -0.070 A 
ATOM      2  C   LIG    1       -2.462   1.412  -0.081  0.00  0.00    -0.010 A 
ATOM      3  C   LIG    1       -3.673   2.077  -0.065  0.00  0.00    +0.020 A 
ATOM      4  C   LIG    1       -4.851   1.380   0.156  0.00  0.00    -0.010 A 
ATOM      5  C   LIG    1       -4.824   0.014   0.363  0.00  0.00    -0.010 A 
ATOM      6  F   LIG    1       -3.710   3.413  -0.266  0.00  0.00    -0.160 F 
ATOM      7  C   LIG    1       -3.617  -0.669   0.344  0.00  0.00    +0.130 A 
ATOM      8  S   LIG    1       -3.582  -2.411   0.606  0.00  0.00    -0.920 S 
ENDROOT
BRANCH   1  11
ATOM      9  C   LIG    1        0.015   1.400   0.723  0.00  0.00    +0.060 C 
ATOM     10  C   LIG    1       -0.044  -0.101   0.596  0.00  0.00    -0.180 C 
ATOM     11  C   LIG    1       -1.132  -0.683   0.109  0.00  0.00    +0.060 C 
ATOM     12  C   LIG    1        1.133  -0.940   1.023  0.00  0.00    +0.070 C 
ENDBRANCH   1  11
TORSDOF 1
ENDMDL
MODEL       37
REMARK  Name = ZINC001240640985
REMARK                            x       y       z     vdW  Elec       q    Type
REMARK                         _______ _______ _______ _____ _____    ______ ____
ROOT
ATOM      1  C   LIG    1       -0.107   0.036  -2.447  0.00  0.00    -0.160 A 
ATOM      2  C   LIG    1        0.090   1.418  -2.457  0.00  0.00    +0.050 A 
ATOM      3  C   LIG    1        0.071   2.107  -3.650  0.00  0.00    -0.040 A 
ATOM      4  C   LIG    1       -0.144   1.429  -4.845  0.00  0.00    +0.160 A 
ATOM      5  C   LIG    1       -0.342   0.052  -4.841  0.00  0.00    -0.160 A 
ATOM      6  C   LIG    1       -0.575  -0.679  -6.138  0.00  0.00    +0.100 C 
ATOM      7  S   LIG    1       -0.167   2.315  -6.368  0.00  0.00    -0.920 S 
ATOM      8  C   LIG    1       -0.319  -0.645  -3.651  0.00  0.00    +0.120 A 
ATOM      9  F   LIG    1       -0.510  -1.983  -3.646  0.00  0.00    -0.150 F 
ENDROOT
BRANCH   1  12
ATOM     10  C   LIG    1       -1.356   1.145  -0.172  0.00  0.00    +0.060 C 
ATOM     11  C   LIG    1       -0.610  -0.161  -0.079  0.00  0.00    -0.150 C 
ATOM     12  C   LIG    1       -0.087  -0.705  -1.170  0.00  0.00    +0.020 C 
ATOM     13  C   LIG    1       -0.459  -0.850   1.253  0.00  0.00    +0.070 C 
ENDBRANCH   1  12
TORSDOF 1
ENDMDL
MODEL       38
REMARK  Name = ZINC001241716259
REMARK                            x       y       z     vdW  Elec       q    Type
REMARK                         _______ _______ _______ _____ _____    ______ ____
ROOT
ATOM      1  S   LIG    1        0.002  -0.004   0.002  0.00  0.00    -0.960 S 
ATOM      2  C   LIG    1       -0.022   1.758   0.012  0.00  0.00    +0.130 A 
ATOM      3  C   LIG    1       -1.235   2.437   0.033  0.00  0.00    -0.040 A 
ATOM      4  C   LIG    1       -1.258   3.819   0.041  0.00  0.00    +0.000 A 
ATOM      5  C   LIG    1       -0.078   4.534   0.028  0.00  0.00    -0.070 A 
ATOM      6  C   LIG    1        1.145   3.862   0.007  0.00  0.00    -0.050 A 
ATOM      7  C   LIG    1        1.170   2.468   0.004  0.00  0.00    -0.020 A 
ENDROOT
BRANCH   6   8
ATOM      8  C   LIG    1        2.411   4.626  -0.007  0.00  0.00    -0.060 C 
ATOM      9  C   LIG    1        2.704   5.353   1.043  0.00  0.00    -0.070 C 
ATOM     10  C   LIG    1        3.947   6.185   1.163  0.00  0.00    +0.060 C 
ATOM     11  C   LIG    1        4.981   5.741   0.126  0.00  0.00    +0.000 C 
ATOM     12  C   LIG    1        4.295   5.671  -1.244  0.00  0.00    +0.000 C 
ATOM     13  C   LIG    1        3.287   4.518  -1.221  0.00  0.00    +0.060 C 
ENDBRANCH   6   8
TORSDOF 1
ENDMDL
MODEL       39
REMARK  Name = ZINC001241716943
REMARK                            x       y       z     vdW  Elec       q    Type
REMARK                         _______ _______ _______ _____ _____    ______ ____
ROOT
ATOM      1  S   LIG    1        0.002  -0.004   0.002  0.00  0.00    -0.940 S 
ATOM      2  C   LIG    1       -0.022   1.758   0.012  0.00  0.00    +0.140 A 
ATOM      3  C   LIG    1       -1.231   2.439   0.033  0.00  0.00    -0.050 A 
ATOM      4  C   LIG    1       -1.247   3.820   0.040  0.00  0.00    -0.010 A 
ATOM      5  C   LIG    1       -0.062   4.534   0.028  0.00  0.00    -0.090 A 
ATOM      6  C   LIG    1        1.149   3.873   0.007  0.00  0.00    +0.000 A 
ATOM      7  C   LIG    1        1.181   2.479   0.004  0.00  0.00    -0.100 A 
ENDROOT
BRANCH   7   8
ATOM      8  C   LIG    1        2.474   1.766  -0.018  0.00  0.00    -0.010 C 
ATOM      9  C   LIG    1        3.176   1.724   1.090  0.00  0.00    -0.100 C 
ATOM     10  C   LIG    1        4.509   1.044   1.210  0.00  0.00    +0.050 C 
ATOM     11  C   LIG    1        4.716   0.081   0.040  0.00  0.00    +0.000 C 
ATOM     12  C   LIG    1        4.408   0.826  -1.265  0.00  0.00    +0.000 C 
ATOM     13  C   LIG    1        2.906   1.126  -1.306  0.00  0.00    +0.080 C 
ENDBRANCH   7   8
TORSDOF 1
ENDMDL
