MODEL        1
REMARK  Name = ZINC001242760782
REMARK                            x       y       z     vdW  Elec       q    Type
REMARK                         _______ _______ _______ _____ _____    ______ ____
ROOT
ATOM      1  C   LIG    1        0.615  -2.143   0.979  0.00  0.00    -0.050 A 
ATOM      2  C   LIG    1       -0.578  -2.858   1.086  0.00  0.00    -0.080 A 
ATOM      3  C   LIG    1       -0.556  -4.246   1.077  0.00  0.00    +0.150 A 
ATOM      4  C   LIG    1        0.652  -4.922   0.962  0.00  0.00    -0.060 A 
ATOM      5  C   LIG    1        1.841  -4.212   0.856  0.00  0.00    +0.150 A 
ATOM      6  S   LIG    1        3.371  -5.074   0.710  0.00  0.00    -1.010 S 
ATOM      7  S   LIG    1       -2.062  -5.151   1.212  0.00  0.00    -1.010 S 
ATOM      8  C   LIG    1        1.825  -2.824   0.859  0.00  0.00    -0.080 A 
ENDROOT
BRANCH   1  11
ATOM      9  C   LIG    1       -0.018   1.503   0.010  0.00  0.00    +0.050 C 
ATOM     10  C   LIG    1        0.002  -0.004   0.002  0.00  0.00    -0.090 C 
ATOM     11  C   LIG    1        0.595  -0.664   0.987  0.00  0.00    -0.050 C 
ATOM     12  C   LIG    1        1.248   0.092   2.115  0.00  0.00    +0.070 C 
ENDBRANCH   1  11
TORSDOF 1
ENDMDL
MODEL        2
REMARK  Name = ZINC001240638192
REMARK                            x       y       z     vdW  Elec       q    Type
REMARK                         _______ _______ _______ _____ _____    ______ ____
ROOT
ATOM      1  C   LIG    1       -2.448  -0.009   0.111  0.00  0.00    -0.060 A 
ATOM      2  C   LIG    1       -2.484   1.369  -0.098  0.00  0.00    -0.070 A 
ATOM      3  C   LIG    1       -3.699   2.041  -0.085  0.00  0.00    +0.150 A 
ATOM      4  C   LIG    1       -4.878   1.341   0.136  0.00  0.00    -0.060 A 
ATOM      5  C   LIG    1       -4.846  -0.032   0.344  0.00  0.00    +0.150 A 
ATOM      6  S   LIG    1       -6.345  -0.916   0.623  0.00  0.00    -1.010 S 
ATOM      7  S   LIG    1       -3.745   3.782  -0.348  0.00  0.00    -1.010 S 
ATOM      8  C   LIG    1       -3.635  -0.710   0.327  0.00  0.00    -0.080 A 
ENDROOT
BRANCH   1  11
ATOM      9  C   LIG    1       -0.245   1.054   1.520  0.00  0.00    +0.060 C 
ATOM     10  C   LIG    1       -0.097  -0.197   0.693  0.00  0.00    -0.160 C 
ATOM     11  C   LIG    1       -1.156  -0.727   0.097  0.00  0.00    +0.010 C 
ATOM     12  C   LIG    1        1.255  -0.845   0.542  0.00  0.00    +0.050 C 
ENDBRANCH   1  11
TORSDOF 1
ENDMDL
