MODEL        1
REMARK  Name = ZINC001173998665
REMARK                            x       y       z     vdW  Elec       q    Type
REMARK                         _______ _______ _______ _____ _____    ______ ____
ROOT
ATOM      1  N   LIG    1        0.873   5.519   0.020  0.00  0.00    -0.630 N 
ATOM      2  H   LIG    1        0.530   4.616  -0.071  0.00  0.00    +0.420 HD
ENDROOT
BRANCH   1   7
ATOM      3 CL   LIG    1       -1.748  10.303   1.250  0.00  0.00    -0.020 Cl
ATOM      4  C   LIG    1       -1.205   8.711   0.822  0.00  0.00    -0.200 A 
ATOM      5  C   LIG    1       -1.999   7.694   0.483  0.00  0.00    +0.070 A 
ATOM      6  C   LIG    1       -1.340   6.513   0.180  0.00  0.00    -0.070 A 
ATOM      7  C   LIG    1       -0.004   6.576   0.275  0.00  0.00    +0.090 A 
ATOM      8  S   LIG    1        0.475   8.197   0.763  0.00  0.00    +0.170 S 
ENDBRANCH   1   7
BRANCH   1   9
ATOM      9  C   LIG    1        2.235   5.761  -0.104  0.00  0.00    +0.100 C 
ATOM     10  C   LIG    1        3.151   4.824  -0.232  0.00  0.00    -0.110 C 
ATOM     11  C   LIG    1        4.530   5.430  -0.343  0.00  0.00    +0.060 C 
ATOM     12  C   LIG    1        4.282   6.917  -0.685  0.00  0.00    +0.050 C 
ATOM     13  C   LIG    1        2.863   7.135  -0.116  0.00  0.00    +0.070 C 
ENDBRANCH   1   9
TORSDOF 2
ENDMDL
MODEL        2
REMARK  Name = ZINC001173997209
REMARK                            x       y       z     vdW  Elec       q    Type
REMARK                         _______ _______ _______ _____ _____    ______ ____
ROOT
ATOM      1  N   LIG    1        0.052  -3.041   1.992  0.00  0.00    -0.640 N 
ATOM      2  H   LIG    1       -0.034  -2.752   2.915  0.00  0.00    +0.420 HD
ENDROOT
BRANCH   1   7
ATOM      3  C   LIG    1        0.299   1.464  -0.063  0.00  0.00    +0.110 C 
ATOM      4  C   LIG    1        0.396  -0.039  -0.022  0.00  0.00    -0.060 A 
ATOM      5  C   LIG    1        0.744  -0.763  -1.086  0.00  0.00    -0.100 A 
ATOM      6  S   LIG    1        0.750  -2.471  -0.665  0.00  0.00    +0.120 S 
ATOM      7  C   LIG    1        0.265  -2.099   0.984  0.00  0.00    +0.090 A 
ATOM      8  C   LIG    1        0.136  -0.771   1.125  0.00  0.00    -0.080 A 
ENDBRANCH   1   7
BRANCH   1   9
ATOM      9  C   LIG    1       -0.036  -4.390   1.676  0.00  0.00    +0.110 C 
ATOM     10  C   LIG    1       -0.121  -5.360   2.561  0.00  0.00    -0.130 C 
ATOM     11  C   LIG    1       -0.203  -6.707   1.880  0.00  0.00    +0.060 C 
ATOM     12  C   LIG    1       -0.577  -6.386   0.415  0.00  0.00    +0.030 C 
ATOM     13  C   LIG    1       -0.052  -4.940   0.269  0.00  0.00    +0.080 C 
ENDBRANCH   1   9
TORSDOF 2
ENDMDL
MODEL        3
REMARK  Name = ZINC001173998977
REMARK                            x       y       z     vdW  Elec       q    Type
REMARK                         _______ _______ _______ _____ _____    ______ ____
ROOT
ATOM      1  C   LIG    1        1.234   0.464   2.729  0.00  0.00    +0.220 A 
ATOM      2  C   LIG    1        2.212   1.134   2.104  0.00  0.00    -0.050 A 
ATOM      3  C   LIG    1        2.565   0.335   0.925  0.00  0.00    -0.120 A 
ATOM      4  C   LIG    1        3.489   0.482  -0.110  0.00  0.00    +0.050 A 
ATOM      5  C   LIG    1        3.574  -0.478  -1.097  0.00  0.00    +0.010 A 
ATOM      6  C   LIG    1        2.748  -1.588  -1.068  0.00  0.00    +0.000 A 
ATOM      7  C   LIG    1        1.820  -1.753  -0.044  0.00  0.00    +0.110 A 
ATOM      8  C   LIG    1        1.722  -0.786   0.965  0.00  0.00    +0.050 A 
ATOM      9  O   LIG    1        0.946  -0.665   2.060  0.00  0.00    -0.190 OA
ENDROOT
BRANCH   7  10
ATOM     10  N   LIG    1        1.005  -2.857  -0.023  0.00  0.00    -0.480 NA
ATOM     11  C   LIG    1        1.515  -4.038  -0.132  0.00  0.00    +0.200 C 
ATOM     12  C   LIG    1        2.990  -4.380  -0.156  0.00  0.00    +0.030 C 
ATOM     13  C   LIG    1        3.092  -5.912  -0.309  0.00  0.00    +0.030 C 
ATOM     14  C   LIG    1        1.739  -6.308  -0.952  0.00  0.00    +0.030 C 
ATOM     15  C   LIG    1        0.747  -5.342  -0.253  0.00  0.00    +0.100 C 
ENDBRANCH   7  10
TORSDOF 1
ENDMDL
MODEL        4
REMARK  Name = ZINC001210448683
REMARK                            x       y       z     vdW  Elec       q    Type
REMARK                         _______ _______ _______ _____ _____    ______ ____
ROOT
ATOM      1  N   LIG    1        3.481   0.572  -0.028  0.00  0.00    -0.470 NA
ATOM      2  C   LIG    1        4.118  -0.165   0.818  0.00  0.00    +0.210 C 
ATOM      3  C   LIG    1        3.365  -1.088   1.748  0.00  0.00    +0.020 C 
ATOM      4  C   LIG    1        2.744  -2.214   0.936  0.00  0.00    +0.030 C 
ATOM      5  C   LIG    1        3.854  -3.179   0.478  0.00  0.00    +0.000 C 
ATOM      6  C   LIG    1        4.592  -2.571  -0.710  0.00  0.00    +0.000 C 
ATOM      7  C   LIG    1        6.053  -2.245  -0.346  0.00  0.00    +0.000 C 
ATOM      8  C   LIG    1        6.120  -1.561   1.018  0.00  0.00    +0.020 C 
ATOM      9  C   LIG    1        5.611  -0.122   0.887  0.00  0.00    +0.090 C 
ENDROOT
BRANCH   1  12
ATOM     10  C   LIG    1       -0.008   0.883   0.712  0.00  0.00    +0.180 A 
ATOM     11  C   LIG    1        1.259   0.963   1.151  0.00  0.00    -0.090 A 
ATOM     12  C   LIG    1        2.108   0.623   0.002  0.00  0.00    -0.010 A 
ATOM     13  C   LIG    1        1.255   0.369  -1.025  0.00  0.00    +0.160 A 
ATOM     14  O   LIG    1       -0.001   0.529  -0.583  0.00  0.00    -0.180 OA
ENDBRANCH   1  12
TORSDOF 1
ENDMDL
MODEL        5
REMARK  Name = ZINC001210792516
REMARK                            x       y       z     vdW  Elec       q    Type
REMARK                         _______ _______ _______ _____ _____    ______ ____
ROOT
ATOM      1  C   LIG    1        2.564  -1.577  -2.101  0.00  0.00    +0.280 A 
ATOM      2  N   LIG    1        2.199  -1.278  -3.350  0.00  0.00    -0.500 NA
ATOM      3  C   LIG    1        2.851  -1.713  -4.400  0.00  0.00    +0.340 A 
ATOM      4  C   LIG    1        3.985  -2.528  -4.242  0.00  0.00    -0.130 A 
ATOM      5  C   LIG    1        4.709  -3.012  -5.342  0.00  0.00    +0.050 A 
ATOM      6  C   LIG    1        5.801  -3.799  -5.135  0.00  0.00    +0.000 A 
ATOM      7  C   LIG    1        6.213  -4.134  -3.846  0.00  0.00    +0.040 A 
ATOM      8  C   LIG    1        5.535  -3.683  -2.753  0.00  0.00    +0.010 A 
ATOM      9  C   LIG    1        4.405  -2.869  -2.929  0.00  0.00    +0.000 A 
ATOM     10  C   LIG    1        3.670  -2.370  -1.842  0.00  0.00    -0.030 A 
ENDROOT
BRANCH   1  12
ATOM     11  C   LIG    1        2.082   0.093  -0.585  0.00  0.00    +0.220 C 
ATOM     12  N   LIG    1        1.831  -1.085  -1.052  0.00  0.00    -0.480 NA
ATOM     13  C   LIG    1        3.088   0.979  -1.275  0.00  0.00    +0.080 C 
BRANCH  11  15
ATOM     14  C   LIG    1        2.384   0.777   1.780  0.00  0.00    +0.040 C 
ATOM     15  C   LIG    1        1.370   0.583   0.650  0.00  0.00    +0.090 C 
ENDBRANCH  11  15
ENDBRANCH   1  12
TORSDOF 2
ENDMDL
MODEL        6
REMARK  Name = ZINC001210793345
REMARK                            x       y       z     vdW  Elec       q    Type
REMARK                         _______ _______ _______ _____ _____    ______ ____
ROOT
ATOM      1  C   LIG    1       -2.366  -2.767  -0.000  0.00  0.00    +0.430 A 
ATOM      2  C   LIG    1       -2.400  -4.167   0.186  0.00  0.00    -0.140 A 
ATOM      3  C   LIG    1       -1.244  -4.909   0.461  0.00  0.00    +0.040 A 
ATOM      4  C   LIG    1       -1.336  -6.258   0.632  0.00  0.00    +0.000 A 
ATOM      5  C   LIG    1       -2.563  -6.912   0.539  0.00  0.00    +0.040 A 
ATOM      6  C   LIG    1       -3.707  -6.221   0.273  0.00  0.00    +0.010 A 
ATOM      7  C   LIG    1       -3.649  -4.833   0.092  0.00  0.00    +0.010 A 
ATOM      8  C   LIG    1       -4.795  -4.063  -0.184  0.00  0.00    -0.080 A 
ATOM      9  C   LIG    1       -4.661  -2.719  -0.347  0.00  0.00    +0.280 A 
ATOM     10  N   LIG    1       -3.485  -2.114  -0.251  0.00  0.00    -0.550 NA
ENDROOT
BRANCH   1  11
ATOM     11  N   LIG    1       -1.165  -2.083   0.084  0.00  0.00    -0.660 N 
ATOM     12  H   LIG    1       -0.335  -2.573   0.197  0.00  0.00    +0.410 HD
BRANCH  11  15
ATOM     13  C   LIG    1       -0.405   1.411  -0.999  0.00  0.00    +0.090 C 
ATOM     14  C   LIG    1       -0.423  -0.094  -0.916  0.00  0.00    -0.080 C 
ATOM     15  C   LIG    1       -1.148  -0.696   0.008  0.00  0.00    +0.110 C 
ATOM     16  C   LIG    1       -1.958   0.122   0.981  0.00  0.00    +0.090 C 
ENDBRANCH  11  15
ENDBRANCH   1  11
TORSDOF 2
ENDMDL
MODEL        7
REMARK  Name = ZINC001210792637
REMARK                            x       y       z     vdW  Elec       q    Type
REMARK                         _______ _______ _______ _____ _____    ______ ____
ROOT
ATOM      1  C   LIG    1       -3.077  -1.601  -0.826  0.00  0.00    +0.310 A 
ATOM      2  C   LIG    1       -3.836  -1.182   0.267  0.00  0.00    -0.060 A 
ATOM      3  C   LIG    1       -5.146  -1.613   0.380  0.00  0.00    +0.090 A 
ATOM      4  C   LIG    1       -5.656  -2.449  -0.604  0.00  0.00    -0.050 A 
ATOM      5  C   LIG    1       -4.848  -2.826  -1.661  0.00  0.00    +0.160 A 
ATOM      6  N   LIG    1       -3.605  -2.398  -1.748  0.00  0.00    -0.500 NA
ENDROOT
BRANCH   1   8
ATOM      7  C   LIG    1       -0.815  -1.920  -0.505  0.00  0.00    +0.230 C 
ATOM      8  N   LIG    1       -1.776  -1.183  -0.952  0.00  0.00    -0.480 NA
ATOM      9  C   LIG    1       -1.108  -3.297   0.033  0.00  0.00    +0.080 C 
BRANCH   7  11
ATOM     10  C   LIG    1        1.105  -1.248   0.914  0.00  0.00    +0.040 C 
ATOM     11  C   LIG    1        0.601  -1.404  -0.522  0.00  0.00    +0.090 C 
ENDBRANCH   7  11
ENDBRANCH   1   8
BRANCH   5  12
ATOM     12  C   LIG    1       -5.398  -3.733  -2.730  0.00  0.00    +0.040 C 
ATOM     13  C   LIG    1       -6.877  -3.413  -2.959  0.00  0.00    +0.040 C 
ATOM     14  C   LIG    1       -5.254  -5.190  -2.286  0.00  0.00    +0.050 C 
ENDBRANCH   5  12
TORSDOF 3
ENDMDL
MODEL        8
REMARK  Name = ZINC001210793346
REMARK                            x       y       z     vdW  Elec       q    Type
REMARK                         _______ _______ _______ _____ _____    ______ ____
ROOT
ATOM      1  C   LIG    1        2.572  -1.566  -2.101  0.00  0.00    +0.330 A 
ATOM      2  C   LIG    1        3.693  -2.372  -1.838  0.00  0.00    -0.040 A 
ATOM      3  C   LIG    1        4.434  -2.861  -2.872  0.00  0.00    +0.100 A 
ATOM      4  C   LIG    1        4.043  -2.537  -4.186  0.00  0.00    -0.120 A 
ATOM      5  C   LIG    1        4.762  -3.008  -5.296  0.00  0.00    +0.040 A 
ATOM      6  C   LIG    1        4.355  -2.675  -6.553  0.00  0.00    +0.010 A 
ATOM      7  C   LIG    1        3.235  -1.871  -6.752  0.00  0.00    +0.040 A 
ATOM      8  C   LIG    1        2.515  -1.396  -5.700  0.00  0.00    +0.030 A 
ATOM      9  C   LIG    1        2.903  -1.719  -4.386  0.00  0.00    +0.150 A 
ATOM     10  N   LIG    1        2.210  -1.271  -3.336  0.00  0.00    -0.500 NA
ENDROOT
BRANCH   1  12
ATOM     11  C   LIG    1        2.083   0.097  -0.579  0.00  0.00    +0.230 C 
ATOM     12  N   LIG    1        1.836  -1.080  -1.052  0.00  0.00    -0.490 NA
ATOM     13  C   LIG    1        3.088   0.987  -1.263  0.00  0.00    +0.080 C 
BRANCH  11  15
ATOM     14  C   LIG    1        2.376   0.771   1.789  0.00  0.00    +0.040 C 
ATOM     15  C   LIG    1        1.366   0.579   0.655  0.00  0.00    +0.090 C 
ENDBRANCH  11  15
ENDBRANCH   1  12
TORSDOF 2
ENDMDL
MODEL        9
REMARK  Name = ZINC001210793381
REMARK                            x       y       z     vdW  Elec       q    Type
REMARK                         _______ _______ _______ _____ _____    ______ ____
ROOT
ATOM      1  N   LIG    1        0.646  -2.067  -1.114  0.00  0.00    -0.660 N 
ATOM      2  H   LIG    1       -0.180  -2.572  -1.176  0.00  0.00    +0.410 HD
ENDROOT
BRANCH   1   3
ATOM      3  C   LIG    1        1.873  -2.731  -1.130  0.00  0.00    +0.120 A 
ATOM      4  C   LIG    1        2.039  -4.047  -1.335  0.00  0.00    -0.090 A 
ATOM      5  C   LIG    1        3.356  -4.477  -1.306  0.00  0.00    +0.000 A 
ATOM      6  C   LIG    1        4.255  -3.519  -1.078  0.00  0.00    -0.090 A 
ATOM      7 CL   LIG    1        3.801  -6.137  -1.547  0.00  0.00    -0.050 Cl
ATOM      8  S   LIG    1        3.442  -1.972  -0.892  0.00  0.00    +0.150 S 
ENDBRANCH   1   3
BRANCH   1  11
ATOM      9  C   LIG    1       -0.098   1.390   0.091  0.00  0.00    +0.080 C 
ATOM     10  C   LIG    1       -0.056  -0.113  -0.021  0.00  0.00    -0.060 C 
ATOM     11  C   LIG    1        0.607  -0.682  -1.011  0.00  0.00    +0.080 C 
ATOM     12  C   LIG    1        1.321   0.170  -2.028  0.00  0.00    +0.090 C 
ENDBRANCH   1  11
TORSDOF 2
ENDMDL
MODEL       10
REMARK  Name = ZINC001210793354
REMARK                            x       y       z     vdW  Elec       q    Type
REMARK                         _______ _______ _______ _____ _____    ______ ____
ROOT
ATOM      1  N   LIG    1        0.646  -2.067  -1.114  0.00  0.00    -0.660 N 
ATOM      2  H   LIG    1       -0.180  -2.572  -1.175  0.00  0.00    +0.410 HD
ENDROOT
BRANCH   1   3
ATOM      3  C   LIG    1        1.874  -2.732  -1.130  0.00  0.00    +0.120 A 
ATOM      4  C   LIG    1        2.039  -4.046  -1.335  0.00  0.00    -0.100 A 
ATOM      5  C   LIG    1        3.357  -4.476  -1.307  0.00  0.00    +0.080 A 
ATOM      6  C   LIG    1        4.256  -3.519  -1.080  0.00  0.00    -0.190 A 
ATOM      7 CL   LIG    1        5.973  -3.762  -0.990  0.00  0.00    -0.020 Cl
ATOM      8  S   LIG    1        3.442  -1.971  -0.892  0.00  0.00    +0.160 S 
ENDBRANCH   1   3
BRANCH   1  11
ATOM      9  C   LIG    1       -0.098   1.390   0.091  0.00  0.00    +0.080 C 
ATOM     10  C   LIG    1       -0.056  -0.113  -0.021  0.00  0.00    -0.060 C 
ATOM     11  C   LIG    1        0.607  -0.682  -1.011  0.00  0.00    +0.080 C 
ATOM     12  C   LIG    1        1.321   0.170  -2.029  0.00  0.00    +0.090 C 
ENDBRANCH   1  11
TORSDOF 2
ENDMDL
MODEL       11
REMARK  Name = ZINC001210795149
REMARK                            x       y       z     vdW  Elec       q    Type
REMARK                         _______ _______ _______ _____ _____    ______ ____
ROOT
ATOM      1  C   LIG    1        1.087  -2.707   2.146  0.00  0.00    +0.180 A 
ATOM      2  C   LIG    1        1.767  -1.995   3.129  0.00  0.00    +0.050 A 
ATOM      3  C   LIG    1        2.261  -2.654   4.240  0.00  0.00    +0.030 A 
ATOM      4  C   LIG    1        2.080  -4.018   4.374  0.00  0.00    +0.010 A 
ATOM      5  C   LIG    1        1.404  -4.729   3.399  0.00  0.00    +0.060 A 
ATOM      6  F   LIG    1        1.944  -0.662   2.998  0.00  0.00    -0.130 F 
ATOM      7  C   LIG    1        0.903  -4.077   2.288  0.00  0.00    -0.080 A 
ATOM      8 CL   LIG    1        0.055  -4.970   1.065  0.00  0.00    -0.060 Cl
ENDROOT
BRANCH   1   9
ATOM      9  N   LIG    1        0.586  -2.044   1.020  0.00  0.00    -0.690 N 
ATOM     10  H   LIG    1        0.374  -2.545   0.217  0.00  0.00    +0.410 HD
BRANCH   9  13
ATOM     11  C   LIG    1        0.788   1.596   0.206  0.00  0.00    +0.080 C 
ATOM     12  C   LIG    1        0.999   0.104   0.171  0.00  0.00    -0.070 C 
ATOM     13  C   LIG    1        0.392  -0.669   1.053  0.00  0.00    +0.100 C 
ATOM     14  C   LIG    1       -0.511  -0.060   2.094  0.00  0.00    +0.090 C 
ENDBRANCH   9  13
ENDBRANCH   1   9
TORSDOF 2
ENDMDL
MODEL       12
REMARK  Name = ZINC001210794821
REMARK                            x       y       z     vdW  Elec       q    Type
REMARK                         _______ _______ _______ _____ _____    ______ ____
ROOT
ATOM      1  C   LIG    1        2.425  -1.757  -2.088  0.00  0.00    +0.300 A 
ATOM      2  N   LIG    1        2.035  -1.518  -3.334  0.00  0.00    -0.500 NA
ATOM      3  C   LIG    1        2.645  -2.067  -4.365  0.00  0.00    +0.270 A 
ATOM      4  C   LIG    1        3.720  -2.917  -4.185  0.00  0.00    -0.050 A 
ATOM      5  C   LIG    1        4.160  -3.195  -2.898  0.00  0.00    +0.080 A 
ATOM      6  C   LIG    1        3.506  -2.601  -1.833  0.00  0.00    -0.140 A 
ENDROOT
BRANCH   1   8
ATOM      7  C   LIG    1        2.083   0.029  -0.668  0.00  0.00    +0.220 C 
ATOM      8  N   LIG    1        1.763  -1.165  -1.042  0.00  0.00    -0.480 NA
ATOM      9  C   LIG    1        3.092   0.822  -1.460  0.00  0.00    +0.090 C 
BRANCH   7  11
ATOM     10  C   LIG    1        2.520   0.855   1.629  0.00  0.00    +0.040 C 
ATOM     11  C   LIG    1        1.449   0.630   0.559  0.00  0.00    +0.090 C 
ENDBRANCH   7  11
ENDBRANCH   1   8
BRANCH   6  12
ATOM     12  C   LIG    1        3.948  -2.872  -0.418  0.00  0.00    +0.030 C 
ATOM     13  C   LIG    1        5.402  -2.428  -0.244  0.00  0.00    +0.030 C 
ATOM     14  C   LIG    1        3.833  -4.369  -0.125  0.00  0.00    +0.040 C 
ENDBRANCH   6  12
TORSDOF 3
ENDMDL
MODEL       13
REMARK  Name = ZINC001249926706
REMARK                            x       y       z     vdW  Elec       q    Type
REMARK                         _______ _______ _______ _____ _____    ______ ____
ROOT
ATOM      1  C   LIG    1        2.132   0.024  -1.268  0.00  0.00    -0.080 A 
ATOM      2  C   LIG    1        2.414   1.242  -1.858  0.00  0.00    +0.040 A 
ATOM      3  C   LIG    1        3.710   1.725  -1.869  0.00  0.00    +0.010 A 
ATOM      4  C   LIG    1        4.727   0.992  -1.292  0.00  0.00    +0.050 A 
ATOM      5  C   LIG    1        4.447  -0.233  -0.697  0.00  0.00    -0.110 A 
ATOM      6  C   LIG    1        3.143  -0.713  -0.683  0.00  0.00    +0.060 A 
ENDROOT
BRANCH   5   7
ATOM      7  S   LIG    1        5.742  -1.172   0.041  0.00  0.00    -0.130 S 
ATOM      8  H   LIG    1        5.750  -0.730   1.312  0.00  0.00    +0.080 HD
ENDBRANCH   5   7
BRANCH   1   9
ATOM      9  C   LIG    1        0.718  -0.497  -1.257  0.00  0.00    +0.090 C 
BRANCH   9  11
ATOM     10  C   LIG    1       -0.019   1.526   0.010  0.00  0.00    +0.020 C 
ATOM     11  C   LIG    1        0.002  -0.004   0.002  0.00  0.00    -0.060 C 
ATOM     12  C   LIG    1       -1.433  -0.534   0.013  0.00  0.00    +0.040 C 
ATOM     13  C   LIG    1        0.742  -0.511   1.242  0.00  0.00    +0.020 C 
ENDBRANCH   9  11
ENDBRANCH   1   9
TORSDOF 3
ENDMDL
MODEL       14
REMARK  Name = ZINC001175753630
REMARK                            x       y       z     vdW  Elec       q    Type
REMARK                         _______ _______ _______ _____ _____    ______ ____
ROOT
ATOM      1  N   LIG    1        0.052  -3.041   1.992  0.00  0.00    -0.670 N 
ATOM      2  H   LIG    1       -0.669  -2.476   1.673  0.00  0.00    +0.410 HD
ENDROOT
BRANCH   1   7
ATOM      3  C   LIG    1        2.380   0.419   4.673  0.00  0.00    +0.110 C 
ATOM      4  C   LIG    1        2.134  -0.960   4.119  0.00  0.00    -0.060 A 
ATOM      5  C   LIG    1        2.907  -2.002   4.424  0.00  0.00    -0.100 A 
ATOM      6  S   LIG    1        2.320  -3.439   3.597  0.00  0.00    +0.100 S 
ATOM      7  C   LIG    1        1.016  -2.519   2.858  0.00  0.00    +0.110 A 
ATOM      8  C   LIG    1        1.085  -1.241   3.260  0.00  0.00    -0.100 A 
ENDBRANCH   1   7
BRANCH   1   9
ATOM      9  C   LIG    1        0.127  -4.367   1.588  0.00  0.00    +0.100 C 
ATOM     10  C   LIG    1        0.204  -4.615   0.309  0.00  0.00    -0.060 C 
ATOM     11  C   LIG    1        0.281  -5.997  -0.273  0.00  0.00    +0.070 C 
ATOM     12  C   LIG    1        0.681  -7.003   0.808  0.00  0.00    +0.020 C 
ATOM     13  C   LIG    1       -0.222  -6.788   2.029  0.00  0.00    +0.030 C 
ATOM     14  C   LIG    1        0.121  -5.429   2.649  0.00  0.00    +0.060 C 
ENDBRANCH   1   9
TORSDOF 2
ENDMDL
MODEL       15
REMARK  Name = ZINC001175752369
REMARK                            x       y       z     vdW  Elec       q    Type
REMARK                         _______ _______ _______ _____ _____    ______ ____
ROOT
ATOM      1  N   LIG    1        1.501  -1.917  -0.022  0.00  0.00    -0.670 N 
ATOM      2  H   LIG    1        1.179  -1.336  -0.728  0.00  0.00    +0.410 HD
ENDROOT
BRANCH   1   3
ATOM      3  C   LIG    1        2.841  -2.279   0.022  0.00  0.00    +0.100 C 
ATOM      4  C   LIG    1        3.732  -1.328   0.098  0.00  0.00    -0.060 C 
ATOM      5  C   LIG    1        5.213  -1.568   0.143  0.00  0.00    +0.080 C 
ATOM      6  C   LIG    1        5.499  -3.025   0.514  0.00  0.00    +0.020 C 
ATOM      7  C   LIG    1        4.652  -3.931  -0.388  0.00  0.00    +0.030 C 
ATOM      8  C   LIG    1        3.179  -3.741  -0.015  0.00  0.00    +0.060 C 
ENDBRANCH   1   3
BRANCH   1  12
ATOM      9  C   LIG    1       -1.351  -2.651   2.102  0.00  0.00    +0.050 A 
ATOM     10  C   LIG    1       -0.615  -3.474   2.848  0.00  0.00    -0.100 A 
ATOM     11  S   LIG    1        1.030  -3.525   2.229  0.00  0.00    +0.100 S 
ATOM     12  C   LIG    1        0.618  -2.390   0.950  0.00  0.00    +0.110 A 
ATOM     13  C   LIG    1       -0.675  -2.050   1.053  0.00  0.00    -0.110 A 
ENDBRANCH   1  12
TORSDOF 2
ENDMDL
MODEL       16
REMARK  Name = ZINC001241713892
REMARK                            x       y       z     vdW  Elec       q    Type
REMARK                         _______ _______ _______ _____ _____    ______ ____
ROOT
ATOM      1  C   LIG    1        2.800   2.743  -0.291  0.00  0.00    +0.230 A 
ATOM      2  C   LIG    1        1.673   2.053  -0.045  0.00  0.00    -0.040 A 
ATOM      3  C   LIG    1        2.039   0.637  -0.004  0.00  0.00    -0.170 A 
ATOM      4  C   LIG    1        1.341  -0.552   0.204  0.00  0.00    +0.330 A 
ATOM      5  N   LIG    1        1.972  -1.705   0.180  0.00  0.00    -0.500 NA
ATOM      6  C   LIG    1        3.283  -1.791  -0.040  0.00  0.00    +0.170 A 
ATOM      7  C   LIG    1        4.053  -0.653  -0.257  0.00  0.00    -0.050 A 
ATOM      8  C   LIG    1        3.430   0.590  -0.241  0.00  0.00    +0.130 A 
ATOM      9  N   LIG    1        3.858   1.882  -0.410  0.00  0.00    -0.590 N 
ATOM     10  H   LIG    1        4.774   2.147  -0.589  0.00  0.00    +0.420 HD
ENDROOT
BRANCH   6  11
ATOM     11  C   LIG    1        3.931  -3.118  -0.053  0.00  0.00    -0.100 C 
ATOM     12  C   LIG    1        3.166  -4.179   0.044  0.00  0.00    +0.020 C 
ATOM     13  C   LIG    1        3.687  -5.587   0.052  0.00  0.00    +0.060 C 
ATOM     14  C   LIG    1        5.120  -5.622  -0.484  0.00  0.00    +0.020 C 
ATOM     15  C   LIG    1        5.939  -4.551   0.247  0.00  0.00    +0.020 C 
ATOM     16  C   LIG    1        5.425  -3.173  -0.184  0.00  0.00    +0.060 C 
ENDBRANCH   6  11
TORSDOF 1
ENDMDL
MODEL       17
REMARK  Name = ZINC001241712275
REMARK                            x       y       z     vdW  Elec       q    Type
REMARK                         _______ _______ _______ _____ _____    ______ ____
ROOT
ATOM      1  C   LIG    1        5.246  -2.650   0.594  0.00  0.00    +0.230 A 
ATOM      2  C   LIG    1        5.381  -1.319   0.461  0.00  0.00    -0.030 A 
ATOM      3  C   LIG    1        4.050  -0.780   0.198  0.00  0.00    -0.150 A 
ATOM      4  C   LIG    1        3.527   0.504  -0.029  0.00  0.00    +0.220 A 
ATOM      5  N   LIG    1        2.226   0.660  -0.243  0.00  0.00    -0.500 NA
ATOM      6  C   LIG    1        1.389  -0.361  -0.250  0.00  0.00    +0.270 A 
ATOM      7  C   LIG    1        1.821  -1.653  -0.036  0.00  0.00    -0.060 A 
ATOM      8  C   LIG    1        3.176  -1.885   0.194  0.00  0.00    +0.130 A 
ATOM      9  N   LIG    1        3.932  -3.003   0.438  0.00  0.00    -0.590 N 
ATOM     10  H   LIG    1        3.588  -3.908   0.491  0.00  0.00    +0.420 HD
ENDROOT
BRANCH   4  11
ATOM     11  C   LIG    1        4.421   1.677  -0.031  0.00  0.00    -0.100 C 
ATOM     12  C   LIG    1        3.878   2.869  -0.114  0.00  0.00    +0.020 C 
ATOM     13  C   LIG    1        4.665   4.147  -0.136  0.00  0.00    +0.060 C 
ATOM     14  C   LIG    1        6.088   3.898   0.371  0.00  0.00    +0.020 C 
ATOM     15  C   LIG    1        6.665   2.688  -0.375  0.00  0.00    +0.020 C 
ATOM     16  C   LIG    1        5.900   1.438   0.069  0.00  0.00    +0.080 C 
ENDBRANCH   4  11
TORSDOF 1
ENDMDL
MODEL       18
REMARK  Name = ZINC001241716960
REMARK                            x       y       z     vdW  Elec       q    Type
REMARK                         _______ _______ _______ _____ _____    ______ ____
ROOT
ATOM      1  C   LIG    1       -0.016   1.356   0.009  0.00  0.00    +0.480 A 
ATOM      2  N   LIG    1        1.199   1.821   0.000  0.00  0.00    -0.500 NA
ATOM      3  C   LIG    1        2.082   0.790  -0.014  0.00  0.00    +0.040 A 
ATOM      4  C   LIG    1        3.479   0.722  -0.027  0.00  0.00    +0.070 A 
ATOM      5  C   LIG    1        4.104  -0.490  -0.040  0.00  0.00    +0.020 A 
ATOM      6  C   LIG    1        3.358  -1.675  -0.040  0.00  0.00    -0.030 A 
ATOM      7  C   LIG    1        1.966  -1.625  -0.025  0.00  0.00    +0.020 A 
ATOM      8  C   LIG    1        1.327  -0.396  -0.013  0.00  0.00    +0.050 A 
ATOM      9  N   LIG    1        0.002  -0.004   0.002  0.00  0.00    -0.600 N 
ATOM     10  H   LIG    1       -0.771  -0.590   0.006  0.00  0.00    +0.420 HD
ENDROOT
BRANCH   6  11
ATOM     11  C   LIG    1        4.048  -2.981  -0.054  0.00  0.00    -0.090 C 
ATOM     12  C   LIG    1        3.911  -3.764   0.989  0.00  0.00    -0.040 C 
ATOM     13  C   LIG    1        4.561  -5.111   1.115  0.00  0.00    +0.060 C 
ATOM     14  C   LIG    1        5.022  -5.604  -0.258  0.00  0.00    +0.010 C 
ATOM     15  C   LIG    1        5.822  -4.483  -0.934  0.00  0.00    +0.020 C 
ATOM     16  C   LIG    1        4.861  -3.337  -1.265  0.00  0.00    +0.060 C 
ENDBRANCH   6  11
TORSDOF 1
ENDMDL
MODEL       19
REMARK  Name = ZINC001241716912
REMARK                            x       y       z     vdW  Elec       q    Type
REMARK                         _______ _______ _______ _____ _____    ______ ____
ROOT
ATOM      1  C   LIG    1       -0.016   1.356   0.009  0.00  0.00    +0.480 A 
ATOM      2  N   LIG    1        1.200   1.819   0.000  0.00  0.00    -0.500 NA
ATOM      3  C   LIG    1        2.080   0.785  -0.014  0.00  0.00    +0.040 A 
ATOM      4  C   LIG    1        3.476   0.710  -0.028  0.00  0.00    +0.070 A 
ATOM      5  C   LIG    1        4.102  -0.517  -0.041  0.00  0.00    +0.000 A 
ATOM      6  C   LIG    1        3.362  -1.688  -0.040  0.00  0.00    +0.040 A 
ATOM      7  C   LIG    1        1.970  -1.639  -0.026  0.00  0.00    -0.050 A 
ATOM      8  C   LIG    1        1.323  -0.397  -0.013  0.00  0.00    +0.060 A 
ATOM      9  N   LIG    1        0.002  -0.004   0.002  0.00  0.00    -0.600 N 
ATOM     10  H   LIG    1       -0.771  -0.589   0.007  0.00  0.00    +0.420 HD
ENDROOT
BRANCH   7  11
ATOM     11  C   LIG    1        1.182  -2.888  -0.025  0.00  0.00    -0.090 C 
ATOM     12  C   LIG    1        0.606  -3.253   1.096  0.00  0.00    -0.040 C 
ATOM     13  C   LIG    1       -0.215  -4.500   1.245  0.00  0.00    +0.060 C 
ATOM     14  C   LIG    1       -0.630  -5.026  -0.130  0.00  0.00    +0.010 C 
ATOM     15  C   LIG    1        0.617  -5.092  -1.022  0.00  0.00    +0.020 C 
ATOM     16  C   LIG    1        1.082  -3.661  -1.307  0.00  0.00    +0.060 C 
ENDBRANCH   7  11
TORSDOF 1
ENDMDL
