MODEL        1
REMARK  Name = ZINC001170078786
REMARK                            x       y       z     vdW  Elec       q    Type
REMARK                         _______ _______ _______ _____ _____    ______ ____
ROOT
ATOM      1  C   LIG    1       -2.713  -4.108  -0.207  0.00  0.00    +0.160 C 
ATOM      2  C   LIG    1       -4.116  -4.717  -0.168  0.00  0.00    +0.090 C 
ENDROOT
BRANCH   1   3
ATOM      3  N   LIG    1       -2.062  -4.460  -1.476  0.00  0.00    -0.390 N 
ATOM      4  C   LIG    1       -0.655  -4.002  -1.472  0.00  0.00    +0.250 C 
ATOM      5  C   LIG    1        0.165  -5.055  -2.239  0.00  0.00    +0.060 C 
ATOM      6  C   LIG    1       -0.854  -6.144  -2.646  0.00  0.00    -0.010 C 
ATOM      7  C   LIG    1       -0.243  -7.539  -2.500  0.00  0.00    +0.070 C 
ATOM      8  C   LIG    1       -2.007  -5.937  -1.631  0.00  0.00    +0.270 C 
ATOM      9  H   LIG    1       -2.560  -4.048  -2.250  0.00  0.00    +0.420 HD
ENDBRANCH   1   3
BRANCH   1  10
ATOM     10  C   LIG    1       -2.814  -2.586  -0.092  0.00  0.00    +0.030 C 
BRANCH  10  11
ATOM     11  C   LIG    1       -3.364  -2.214   1.287  0.00  0.00    +0.030 C 
BRANCH  11  12
ATOM     12  C   LIG    1       -3.336  -0.694   1.454  0.00  0.00    +0.010 C 
BRANCH  12  14
ATOM     13  C   LIG    1       -3.743   1.186   3.049  0.00  0.00    +0.030 C 
ATOM     14  C   LIG    1       -3.886  -0.322   2.833  0.00  0.00    -0.030 C 
ATOM     15  C   LIG    1       -5.363  -0.712   2.915  0.00  0.00    +0.020 C 
ENDBRANCH  12  14
ENDBRANCH  11  12
ENDBRANCH  10  11
ENDBRANCH   1  10
TORSDOF 5
ENDMDL
MODEL        2
REMARK  Name = ZINC001170084898
REMARK                            x       y       z     vdW  Elec       q    Type
REMARK                         _______ _______ _______ _____ _____    ______ ____
ROOT
ATOM      1  C   LIG    1       -2.294  -5.348  -0.420  0.00  0.00    +0.160 C 
ATOM      2  C   LIG    1       -3.595  -5.660   0.323  0.00  0.00    +0.090 C 
ENDROOT
BRANCH   1   3
ATOM      3  N   LIG    1       -2.027  -3.905  -0.354  0.00  0.00    -0.380 N 
ATOM      4  C   LIG    1       -0.642  -3.643  -0.770  0.00  0.00    +0.310 C 
ATOM      5  H   LIG    1       -2.160  -3.581   0.592  0.00  0.00    +0.420 HD
BRANCH   3   6
ATOM      6  C   LIG    1       -2.949  -3.194  -1.250  0.00  0.00    +0.060 C 
ATOM      7  C   LIG    1       -2.630  -3.556  -2.701  0.00  0.00    +0.080 C 
ATOM      8  C   LIG    1       -2.791  -1.685  -1.053  0.00  0.00    +0.090 C 
ATOM      9  C   LIG    1       -4.388  -3.602  -0.927  0.00  0.00    +0.090 C 
ENDBRANCH   3   6
ENDBRANCH   1   3
BRANCH   1  10
ATOM     10  C   LIG    1       -1.139  -6.110   0.232  0.00  0.00    +0.050 C 
BRANCH  10  11
ATOM     11  C   LIG    1       -0.861  -5.527   1.619  0.00  0.00    -0.000 C 
BRANCH  11  12
ATOM     12  C   LIG    1        0.407  -6.161   2.194  0.00  0.00    +0.020 C 
BRANCH  12  14
ATOM     13  C   LIG    1        1.880  -6.300   4.208  0.00  0.00    +0.030 C 
ATOM     14  C   LIG    1        0.685  -5.578   3.581  0.00  0.00    -0.030 C 
ATOM     15  C   LIG    1        1.001  -4.087   3.453  0.00  0.00    +0.020 C 
ENDBRANCH  12  14
ENDBRANCH  11  12
ENDBRANCH  10  11
ENDBRANCH   1  10
TORSDOF 6
ENDMDL
MODEL        3
REMARK  Name = ZINC001170072704
REMARK                            x       y       z     vdW  Elec       q    Type
REMARK                         _______ _______ _______ _____ _____    ______ ____
ROOT
ATOM      1  C   LIG    1        1.969   0.030  -1.307  0.00  0.00    +0.160 C 
ATOM      2  C   LIG    1        2.323   1.510  -1.468  0.00  0.00    +0.090 C 
ENDROOT
BRANCH   1   3
ATOM      3  N   LIG    1        0.557  -0.096  -0.922  0.00  0.00    -0.350 N 
ATOM      4  H   LIG    1        0.287   0.702  -0.367  0.00  0.00    +0.420 HD
BRANCH   3   5
ATOM      5  C   LIG    1       -0.276  -0.156  -2.131  0.00  0.00    +0.100 C 
ATOM      6  C   LIG    1       -1.556   0.682  -2.149  0.00  0.00    +0.100 C 
ATOM      7  C   LIG    1       -0.354   1.102  -2.998  0.00  0.00    +0.090 C 
ENDBRANCH   3   5
BRANCH   3   9
ATOM      8  C   LIG    1        1.093  -1.187   1.203  0.00  0.00    +0.080 C 
ATOM      9  C   LIG    1        0.371  -1.324  -0.138  0.00  0.00    +0.240 C 
ENDBRANCH   3   9
ENDBRANCH   1   3
BRANCH   1  10
ATOM     10  C   LIG    1        2.204  -0.697  -2.632  0.00  0.00    +0.070 C 
BRANCH  10  11
ATOM     11  C   LIG    1        1.998  -2.200  -2.433  0.00  0.00    +0.010 C 
BRANCH  11  12
ATOM     12  C   LIG    1        2.388  -2.942  -3.712  0.00  0.00    +0.020 C 
BRANCH  12  13
ATOM     13  C   LIG    1        2.183  -4.445  -3.513  0.00  0.00    -0.030 C 
ATOM     14  C   LIG    1        3.147  -4.954  -2.439  0.00  0.00    +0.020 C 
ATOM     15  C   LIG    1        2.453  -5.176  -4.829  0.00  0.00    +0.030 C 
ENDBRANCH  12  13
ENDBRANCH  11  12
ENDBRANCH  10  11
ENDBRANCH   1  10
TORSDOF 7
ENDMDL
MODEL        4
REMARK  Name = ZINC001170078408
REMARK                            x       y       z     vdW  Elec       q    Type
REMARK                         _______ _______ _______ _____ _____    ______ ____
ROOT
ATOM      1  C   LIG    1        0.258   1.413   2.174  0.00  0.00    +0.160 C 
ATOM      2  C   LIG    1       -0.584   2.171   1.146  0.00  0.00    +0.090 C 
ENDROOT
BRANCH   1   3
ATOM      3  N   LIG    1       -0.183   0.013   2.232  0.00  0.00    -0.380 N 
ATOM      4  C   LIG    1        0.544  -0.685   3.300  0.00  0.00    +0.310 C 
ATOM      5  H   LIG    1       -1.174  -0.019   2.422  0.00  0.00    +0.420 HD
BRANCH   3   6
ATOM      6  C   LIG    1        0.089  -0.640   0.945  0.00  0.00    +0.160 C 
ATOM      7  C   LIG    1        1.601  -0.731   0.729  0.00  0.00    +0.080 C 
BRANCH   6   9
ATOM      8  C   LIG    1       -2.034  -1.952   1.052  0.00  0.00    +0.030 C 
ATOM      9  C   LIG    1       -0.511  -2.047   0.950  0.00  0.00    +0.050 C 
ENDBRANCH   6   9
ENDBRANCH   3   6
ENDBRANCH   1   3
BRANCH   1  10
ATOM     10  C   LIG    1        0.087   2.060   3.550  0.00  0.00    +0.050 C 
BRANCH  10  11
ATOM     11  C   LIG    1        1.280   1.697   4.436  0.00  0.00    +0.000 C 
BRANCH  11  12
ATOM     12  C   LIG    1        1.047   2.232   5.850  0.00  0.00    +0.010 C 
BRANCH  12  13
ATOM     13  C   LIG    1        2.240   1.869   6.736  0.00  0.00    -0.030 C 
ATOM     14  C   LIG    1        1.953   2.294   8.177  0.00  0.00    +0.030 C 
ATOM     15  C   LIG    1        3.490   2.593   6.230  0.00  0.00    +0.020 C 
ENDBRANCH  12  13
ENDBRANCH  11  12
ENDBRANCH  10  11
ENDBRANCH   1  10
TORSDOF 7
ENDMDL
MODEL        5
REMARK  Name = ZINC001170073810
REMARK                            x       y       z     vdW  Elec       q    Type
REMARK                         _______ _______ _______ _____ _____    ______ ____
ROOT
ATOM      1  C   LIG    1       -2.726  -4.004  -0.206  0.00  0.00    +0.160 C 
ATOM      2  C   LIG    1       -4.083  -4.557  -0.647  0.00  0.00    +0.090 C 
ENDROOT
BRANCH   1   3
ATOM      3  N   LIG    1       -2.341  -4.614   1.073  0.00  0.00    -0.390 N 
ATOM      4  C   LIG    1       -3.444  -4.474   2.059  0.00  0.00    +0.250 C 
ATOM      5  C   LIG    1       -3.146  -5.597   3.085  0.00  0.00    +0.080 C 
ATOM      6  C   LIG    1       -2.623  -6.748   2.195  0.00  0.00    +0.070 C 
ATOM      7  C   LIG    1       -2.132  -6.068   0.903  0.00  0.00    +0.160 C 
ATOM      8  C   LIG    1       -0.646  -6.366   0.690  0.00  0.00    +0.090 C 
ATOM      9  H   LIG    1       -1.502  -4.180   1.427  0.00  0.00    +0.420 HD
ENDBRANCH   1   3
BRANCH   1  10
ATOM     10  C   LIG    1       -2.824  -2.486  -0.040  0.00  0.00    +0.060 C 
BRANCH  10  11
ATOM     11  C   LIG    1       -1.443  -1.921   0.299  0.00  0.00    -0.000 C 
BRANCH  11  12
ATOM     12  C   LIG    1       -1.513  -0.393   0.339  0.00  0.00    +0.020 C 
BRANCH  12  14
ATOM     13  C   LIG    1       -0.157   1.702   0.453  0.00  0.00    +0.030 C 
ATOM     14  C   LIG    1       -0.110   0.177   0.558  0.00  0.00    -0.030 C 
ATOM     15  C   LIG    1        0.392  -0.224   1.947  0.00  0.00    +0.020 C 
ENDBRANCH  12  14
ENDBRANCH  11  12
ENDBRANCH  10  11
ENDBRANCH   1  10
TORSDOF 5
ENDMDL
MODEL        6
REMARK  Name = ZINC001170074468
REMARK                            x       y       z     vdW  Elec       q    Type
REMARK                         _______ _______ _______ _____ _____    ______ ____
ROOT
ATOM      1  C   LIG    1        1.367  -4.100  -2.602  0.00  0.00    +0.160 C 
ATOM      2  C   LIG    1        2.168  -4.571  -3.817  0.00  0.00    +0.080 C 
ENDROOT
BRANCH   1   3
ATOM      3  N   LIG    1        1.584  -2.660  -2.401  0.00  0.00    -0.380 N 
ATOM      4  C   LIG    1        1.267  -1.940  -3.642  0.00  0.00    +0.310 C 
ATOM      5  H   LIG    1        0.985  -2.331  -1.659  0.00  0.00    +0.420 HD
BRANCH   3   6
ATOM      6  C   LIG    1        2.988  -2.422  -2.041  0.00  0.00    +0.250 C 
BRANCH   6   7
ATOM      7  C   LIG    1        3.188  -0.938  -1.727  0.00  0.00    +0.030 C 
BRANCH   7   9
ATOM      8  C   LIG    1        4.851   0.795  -1.038  0.00  0.00    +0.030 C 
ATOM      9  C   LIG    1        4.651  -0.689  -1.352  0.00  0.00    +0.020 C 
ENDBRANCH   7   9
ENDBRANCH   6   7
ENDBRANCH   3   6
ENDBRANCH   1   3
BRANCH   1  10
ATOM     10  C   LIG    1       -0.121  -4.364  -2.837  0.00  0.00    +0.050 C 
BRANCH  10  11
ATOM     11  C   LIG    1       -0.913  -3.966  -1.591  0.00  0.00    -0.000 C 
BRANCH  11  12
ATOM     12  C   LIG    1       -2.398  -4.260  -1.814  0.00  0.00    +0.020 C 
BRANCH  12  13
ATOM     13  C   LIG    1       -3.191  -3.862  -0.568  0.00  0.00    -0.030 C 
ATOM     14  C   LIG    1       -2.774  -4.750   0.607  0.00  0.00    +0.020 C 
ATOM     15  C   LIG    1       -4.686  -4.039  -0.836  0.00  0.00    +0.030 C 
ENDBRANCH  12  13
ENDBRANCH  11  12
ENDBRANCH  10  11
ENDBRANCH   1  10
TORSDOF 8
ENDMDL
MODEL        7
REMARK  Name = ZINC001170078789
REMARK                            x       y       z     vdW  Elec       q    Type
REMARK                         _______ _______ _______ _____ _____    ______ ____
ROOT
ATOM      1  C   LIG    1       -2.949  -4.112  -0.195  0.00  0.00    +0.160 C 
ATOM      2  C   LIG    1       -4.345  -4.673  -0.472  0.00  0.00    +0.090 C 
ENDROOT
BRANCH   1   3
ATOM      3  N   LIG    1       -2.418  -4.706   1.039  0.00  0.00    -0.390 N 
ATOM      4  C   LIG    1       -2.336  -6.183   0.903  0.00  0.00    +0.260 C 
ATOM      5  C   LIG    1       -1.287  -6.580   1.972  0.00  0.00    +0.080 C 
ATOM      6  C   LIG    1       -0.264  -5.423   1.897  0.00  0.00    +0.000 C 
ATOM      7  C   LIG    1        0.226  -5.057   3.300  0.00  0.00    +0.050 C 
ATOM      8  C   LIG    1       -1.033  -4.243   1.274  0.00  0.00    +0.250 C 
ATOM      9  H   LIG    1       -3.004  -4.461   1.824  0.00  0.00    +0.420 HD
ENDBRANCH   1   3
BRANCH   1  10
ATOM     10  C   LIG    1       -3.033  -2.592  -0.035  0.00  0.00    +0.030 C 
BRANCH  10  11
ATOM     11  C   LIG    1       -3.453  -1.962  -1.364  0.00  0.00    +0.040 C 
BRANCH  11  12
ATOM     12  C   LIG    1       -3.565  -0.445  -1.196  0.00  0.00    +0.020 C 
BRANCH  12  14
ATOM     13  C   LIG    1       -4.218   1.685  -2.327  0.00  0.00    +0.030 C 
ATOM     14  C   LIG    1       -3.986   0.185  -2.525  0.00  0.00    -0.030 C 
ATOM     15  C   LIG    1       -2.881  -0.027  -3.563  0.00  0.00    +0.020 C 
ENDBRANCH  12  14
ENDBRANCH  11  12
ENDBRANCH  10  11
ENDBRANCH   1  10
TORSDOF 5
ENDMDL
MODEL        8
REMARK  Name = ZINC001170073715
REMARK                            x       y       z     vdW  Elec       q    Type
REMARK                         _______ _______ _______ _____ _____    ______ ____
ROOT
ATOM      1  C   LIG    1       -2.576  -4.075  -0.280  0.00  0.00    +0.160 C 
ATOM      2  C   LIG    1       -4.065  -4.346  -0.057  0.00  0.00    +0.090 C 
ENDROOT
BRANCH   1   3
ATOM      3  N   LIG    1       -2.229  -4.363  -1.678  0.00  0.00    -0.380 N 
ATOM      4  C   LIG    1       -2.416  -5.796  -1.943  0.00  0.00    +0.310 C 
ATOM      5  H   LIG    1       -1.266  -4.113  -1.844  0.00  0.00    +0.420 HD
BRANCH   3   6
ATOM      6  C   LIG    1       -3.099  -3.583  -2.569  0.00  0.00    +0.280 C 
BRANCH   6   7
ATOM      7  C   LIG    1       -2.672  -3.805  -4.021  0.00  0.00    -0.090 C 
ATOM      8  C   LIG    1       -3.676  -4.480  -4.957  0.00  0.00    +0.050 C 
ATOM      9  C   LIG    1       -3.383  -2.986  -5.099  0.00  0.00    +0.070 C 
ENDBRANCH   6   7
ENDBRANCH   3   6
ENDBRANCH   1   3
BRANCH   1  10
ATOM     10  C   LIG    1       -2.273  -2.607   0.028  0.00  0.00    +0.050 C 
BRANCH  10  11
ATOM     11  C   LIG    1       -0.764  -2.368  -0.056  0.00  0.00    -0.000 C 
BRANCH  11  12
ATOM     12  C   LIG    1       -0.463  -0.896   0.233  0.00  0.00    +0.020 C 
BRANCH  12  14
ATOM     13  C   LIG    1        1.336   0.835   0.315  0.00  0.00    +0.030 C 
ATOM     14  C   LIG    1        1.046  -0.658   0.149  0.00  0.00    -0.030 C 
ATOM     15  C   LIG    1        1.748  -1.441   1.260  0.00  0.00    +0.020 C 
ENDBRANCH  12  14
ENDBRANCH  11  12
ENDBRANCH  10  11
ENDBRANCH   1  10
TORSDOF 7
ENDMDL
MODEL        9
REMARK  Name = ZINC000608491918
REMARK                            x       y       z     vdW  Elec       q    Type
REMARK                         _______ _______ _______ _____ _____    ______ ____
ROOT
ATOM      1  N   LIG    1       -2.828  -4.062   0.007  0.00  0.00    -0.380 N 
ATOM      2  C   LIG    1       -2.221  -4.548   1.252  0.00  0.00    +0.250 C 
ATOM      3  C   LIG    1       -2.124  -6.075   1.214  0.00  0.00    +0.050 C 
ATOM      4  C   LIG    1       -3.528  -6.667   1.064  0.00  0.00    +0.040 C 
ATOM      5  C   LIG    1       -4.180  -6.095  -0.199  0.00  0.00    +0.010 C 
ATOM      6  C   LIG    1       -3.376  -6.524  -1.428  0.00  0.00    +0.030 C 
ATOM      7  C   LIG    1       -4.201  -4.568  -0.107  0.00  0.00    +0.260 C 
ATOM      8  H   LIG    1       -2.285  -4.386  -0.779  0.00  0.00    +0.420 HD
ENDROOT
BRANCH   1   9
ATOM      9  C   LIG    1       -2.848  -2.593   0.015  0.00  0.00    +0.240 C 
BRANCH   9  10
ATOM     10  C   LIG    1       -1.413  -2.063   0.004  0.00  0.00    +0.040 C 
BRANCH  10  11
ATOM     11  C   LIG    1       -1.433  -0.534   0.013  0.00  0.00    -0.060 C 
ATOM     12  C   LIG    1       -2.173  -0.027  -1.227  0.00  0.00    +0.020 C 
ATOM     13  C   LIG    1       -2.149  -0.040   1.272  0.00  0.00    +0.020 C 
BRANCH  11  15
ATOM     14  C   LIG    1       -0.019   1.526   0.010  0.00  0.00    +0.020 C 
ATOM     15  C   LIG    1        0.002  -0.004   0.002  0.00  0.00    +0.030 C 
ENDBRANCH  11  15
ENDBRANCH  10  11
ENDBRANCH   9  10
ENDBRANCH   1   9
TORSDOF 4
ENDMDL
MODEL       10
REMARK  Name = ZINC000608491871
REMARK                            x       y       z     vdW  Elec       q    Type
REMARK                         _______ _______ _______ _____ _____    ______ ____
ROOT
ATOM      1  N   LIG    1        1.415  -4.234   2.465  0.00  0.00    -0.380 N 
ATOM      2  C   LIG    1        2.114  -4.724   1.269  0.00  0.00    +0.320 C 
ATOM      3  H   LIG    1        0.528  -4.707   2.553  0.00  0.00    +0.420 HD
ENDROOT
BRANCH   1   4
ATOM      4  C   LIG    1        2.233  -4.503   3.655  0.00  0.00    +0.200 C 
ATOM      5  C   LIG    1        2.580  -5.992   3.709  0.00  0.00    +0.100 C 
BRANCH   4   6
ATOM      6  C   LIG    1        1.450  -4.116   4.910  0.00  0.00    -0.090 C 
ATOM      7  C   LIG    1        0.992  -5.246   5.834  0.00  0.00    +0.050 C 
ATOM      8  C   LIG    1        2.135  -4.323   6.263  0.00  0.00    +0.070 C 
ENDBRANCH   4   6
ENDBRANCH   1   4
BRANCH   1   9
ATOM      9  C   LIG    1        1.190  -2.788   2.342  0.00  0.00    +0.240 C 
BRANCH   9  10
ATOM     10  C   LIG    1        0.219  -2.519   1.190  0.00  0.00    +0.040 C 
BRANCH  10  11
ATOM     11  C   LIG    1       -0.016  -1.013   1.062  0.00  0.00    -0.060 C 
ATOM     12  C   LIG    1       -0.610  -0.476   2.366  0.00  0.00    +0.020 C 
ATOM     13  C   LIG    1        1.315  -0.311   0.782  0.00  0.00    +0.020 C 
BRANCH  11  15
ATOM     14  C   LIG    1       -1.221   0.763  -0.218  0.00  0.00    +0.020 C 
ATOM     15  C   LIG    1       -0.986  -0.744  -0.090  0.00  0.00    +0.030 C 
ENDBRANCH  11  15
ENDBRANCH  10  11
ENDBRANCH   9  10
ENDBRANCH   1   9
TORSDOF 6
ENDMDL
MODEL       11
REMARK  Name = ZINC000608491746
REMARK                            x       y       z     vdW  Elec       q    Type
REMARK                         _______ _______ _______ _____ _____    ______ ____
ROOT
ATOM      1  N   LIG    1        1.475  -3.990  -2.532  0.00  0.00    -0.380 N 
ATOM      2  C   LIG    1        0.101  -4.497  -2.642  0.00  0.00    +0.310 C 
ATOM      3  H   LIG    1        1.890  -4.325  -1.676  0.00  0.00    +0.420 HD
ENDROOT
BRANCH   1   4
ATOM      4  C   LIG    1        2.265  -4.462  -3.677  0.00  0.00    +0.160 C 
ATOM      5  C   LIG    1        3.750  -4.050  -3.518  0.00  0.00    +0.040 C 
ATOM      6  C   LIG    1        4.488  -5.087  -4.400  0.00  0.00    +0.050 C 
ATOM      7  C   LIG    1        3.715  -6.401  -4.168  0.00  0.00    +0.030 C 
ATOM      8  C   LIG    1        2.301  -6.004  -3.708  0.00  0.00    +0.040 C 
ENDBRANCH   1   4
BRANCH   1   9
ATOM      9  C   LIG    1        1.455  -2.521  -2.524  0.00  0.00    +0.240 C 
BRANCH   9  10
ATOM     10  C   LIG    1        0.739  -2.027  -1.265  0.00  0.00    +0.040 C 
BRANCH  10  11
ATOM     11  C   LIG    1        0.718  -0.497  -1.257  0.00  0.00    -0.060 C 
ATOM     12  C   LIG    1        2.154   0.032  -1.268  0.00  0.00    +0.020 C 
ATOM     13  C   LIG    1       -0.022   0.009  -2.496  0.00  0.00    +0.020 C 
BRANCH  11  15
ATOM     14  C   LIG    1       -0.019   1.526   0.010  0.00  0.00    +0.020 C 
ATOM     15  C   LIG    1        0.002  -0.004   0.002  0.00  0.00    +0.030 C 
ENDBRANCH  11  15
ENDBRANCH  10  11
ENDBRANCH   9  10
ENDBRANCH   1   9
TORSDOF 5
ENDMDL
MODEL       12
REMARK  Name = ZINC000608491872
REMARK                            x       y       z     vdW  Elec       q    Type
REMARK                         _______ _______ _______ _____ _____    ______ ____
ROOT
ATOM      1  N   LIG    1        1.523  -4.016   2.465  0.00  0.00    -0.380 N 
ATOM      2  C   LIG    1        2.313  -4.489   1.320  0.00  0.00    +0.310 C 
ATOM      3  H   LIG    1        0.579  -4.365   2.389  0.00  0.00    +0.420 HD
ENDROOT
BRANCH   1   4
ATOM      4  C   LIG    1        2.127  -4.505   3.712  0.00  0.00    +0.190 C 
ATOM      5  C   LIG    1        1.304  -4.013   4.904  0.00  0.00    +0.090 C 
BRANCH   4   6
ATOM      6  C   LIG    1        2.147  -6.035   3.703  0.00  0.00    -0.090 C 
ATOM      7  C   LIG    1        3.510  -6.722   3.601  0.00  0.00    +0.040 C 
ATOM      8  C   LIG    1        2.742  -6.740   4.924  0.00  0.00    +0.070 C 
ENDBRANCH   4   6
ENDBRANCH   1   4
BRANCH   1   9
ATOM      9  C   LIG    1        1.503  -2.548   2.473  0.00  0.00    +0.250 C 
BRANCH   9  10
ATOM     10  C   LIG    1        0.763  -2.041   1.233  0.00  0.00    +0.040 C 
BRANCH  10  11
ATOM     11  C   LIG    1        0.742  -0.511   1.242  0.00  0.00    -0.060 C 
ATOM     12  C   LIG    1        0.026  -0.018   2.500  0.00  0.00    +0.020 C 
ATOM     13  C   LIG    1        2.178   0.019   1.231  0.00  0.00    +0.020 C 
BRANCH  11  15
ATOM     14  C   LIG    1       -0.019   1.526   0.010  0.00  0.00    +0.020 C 
ATOM     15  C   LIG    1        0.002  -0.004   0.002  0.00  0.00    +0.030 C 
ENDBRANCH  11  15
ENDBRANCH  10  11
ENDBRANCH   9  10
ENDBRANCH   1   9
TORSDOF 6
ENDMDL
MODEL       13
REMARK  Name = ZINC000608491939
REMARK                            x       y       z     vdW  Elec       q    Type
REMARK                         _______ _______ _______ _____ _____    ______ ____
ROOT
ATOM      1  N   LIG    1        1.475  -3.990  -2.532  0.00  0.00    -0.380 N 
ATOM      2  C   LIG    1        0.101  -4.495  -2.639  0.00  0.00    +0.240 C 
ATOM      3  C   LIG    1        0.110  -6.024  -2.566  0.00  0.00    +0.060 C 
ATOM      4  C   LIG    1        0.951  -6.580  -3.719  0.00  0.00    +0.030 C 
ATOM      5  C   LIG    1        2.361  -5.987  -3.640  0.00  0.00    +0.060 C 
ATOM      6  C   LIG    1        2.268  -4.460  -3.674  0.00  0.00    +0.170 C 
ATOM      7  C   LIG    1        1.598  -4.020  -4.977  0.00  0.00    +0.070 C 
ATOM      8  H   LIG    1        1.890  -4.324  -1.675  0.00  0.00    +0.420 HD
ENDROOT
BRANCH   1   9
ATOM      9  C   LIG    1        1.455  -2.521  -2.524  0.00  0.00    +0.240 C 
BRANCH   9  10
ATOM     10  C   LIG    1        0.739  -2.027  -1.265  0.00  0.00    +0.040 C 
BRANCH  10  11
ATOM     11  C   LIG    1        0.718  -0.497  -1.257  0.00  0.00    -0.060 C 
ATOM     12  C   LIG    1        2.154   0.032  -1.268  0.00  0.00    +0.020 C 
ATOM     13  C   LIG    1       -0.022   0.009  -2.496  0.00  0.00    +0.020 C 
BRANCH  11  15
ATOM     14  C   LIG    1       -0.019   1.526   0.010  0.00  0.00    +0.020 C 
ATOM     15  C   LIG    1        0.002  -0.004   0.002  0.00  0.00    +0.030 C 
ENDBRANCH  11  15
ENDBRANCH  10  11
ENDBRANCH   9  10
ENDBRANCH   1   9
TORSDOF 4
ENDMDL
MODEL       14
REMARK  Name = ZINC001170075009
REMARK                            x       y       z     vdW  Elec       q    Type
REMARK                         _______ _______ _______ _____ _____    ______ ____
ROOT
ATOM      1  C   LIG    1       -2.364  -2.119  -0.273  0.00  0.00    +0.160 C 
ATOM      2  C   LIG    1       -1.671  -2.926   0.826  0.00  0.00    +0.080 C 
ENDROOT
BRANCH   1   3
ATOM      3  N   LIG    1       -1.837  -0.747  -0.279  0.00  0.00    -0.380 N 
ATOM      4  H   LIG    1       -2.358  -0.190  -0.939  0.00  0.00    +0.420 HD
BRANCH   3   5
ATOM      5  C   LIG    1       -0.420  -0.768  -0.665  0.00  0.00    +0.160 C 
ATOM      6  C   LIG    1        0.126   0.661  -0.676  0.00  0.00    +0.080 C 
ATOM      7  C   LIG    1       -0.281  -1.378  -2.062  0.00  0.00    +0.080 C 
ENDBRANCH   3   5
BRANCH   3   9
ATOM      8  C   LIG    1       -2.053   1.358   0.955  0.00  0.00    +0.080 C 
ATOM      9  C   LIG    1       -1.970  -0.166   1.064  0.00  0.00    +0.240 C 
ENDBRANCH   3   9
ENDBRANCH   1   3
BRANCH   1  10
ATOM     10  C   LIG    1       -3.870  -2.086  -0.010  0.00  0.00    +0.050 C 
BRANCH  10  11
ATOM     11  C   LIG    1       -4.572  -1.349  -1.152  0.00  0.00    +0.000 C 
BRANCH  11  12
ATOM     12  C   LIG    1       -6.065  -1.227  -0.840  0.00  0.00    +0.020 C 
BRANCH  12  13
ATOM     13  C   LIG    1       -6.787  -0.605  -2.037  0.00  0.00    -0.030 C 
ATOM     14  C   LIG    1       -6.325   0.843  -2.216  0.00  0.00    +0.020 C 
ATOM     15  C   LIG    1       -8.297  -0.631  -1.791  0.00  0.00    +0.030 C 
ENDBRANCH  12  13
ENDBRANCH  11  12
ENDBRANCH  10  11
ENDBRANCH   1  10
TORSDOF 7
ENDMDL
MODEL       15
REMARK  Name = ZINC001170078407
REMARK                            x       y       z     vdW  Elec       q    Type
REMARK                         _______ _______ _______ _____ _____    ______ ____
ROOT
ATOM      1  C   LIG    1       -0.307   1.012   2.455  0.00  0.00    +0.160 C 
ATOM      2  C   LIG    1       -1.053   1.649   3.630  0.00  0.00    +0.080 C 
ENDROOT
BRANCH   1   3
ATOM      3  N   LIG    1       -0.424  -0.450   2.536  0.00  0.00    -0.380 N 
ATOM      4  C   LIG    1       -1.841  -0.832   2.477  0.00  0.00    +0.330 C 
ATOM      5  H   LIG    1        0.070  -0.870   1.764  0.00  0.00    +0.420 HD
BRANCH   3   6
ATOM      6  C   LIG    1        0.157  -0.918   3.802  0.00  0.00    +0.160 C 
ATOM      7  C   LIG    1        0.090  -2.446   3.860  0.00  0.00    +0.090 C 
BRANCH   6   9
ATOM      8  C   LIG    1        1.681   0.941   4.483  0.00  0.00    +0.030 C 
ATOM      9  C   LIG    1        1.617  -0.468   3.890  0.00  0.00    +0.040 C 
ENDBRANCH   6   9
ENDBRANCH   3   6
ENDBRANCH   1   3
BRANCH   1  10
ATOM     10  C   LIG    1       -0.917   1.500   1.140  0.00  0.00    +0.050 C 
BRANCH  10  11
ATOM     11  C   LIG    1       -0.140   0.903  -0.035  0.00  0.00    -0.000 C 
BRANCH  11  12
ATOM     12  C   LIG    1       -0.666   1.490  -1.346  0.00  0.00    +0.020 C 
BRANCH  12  13
ATOM     13  C   LIG    1        0.028   0.806  -2.526  0.00  0.00    -0.030 C 
ATOM     14  C   LIG    1       -0.413   1.470  -3.832  0.00  0.00    +0.030 C 
ATOM     15  C   LIG    1       -0.354  -0.675  -2.553  0.00  0.00    +0.020 C 
ENDBRANCH  12  13
ENDBRANCH  11  12
ENDBRANCH  10  11
ENDBRANCH   1  10
TORSDOF 7
ENDMDL
MODEL       16
REMARK  Name = ZINC000608491823
REMARK                            x       y       z     vdW  Elec       q    Type
REMARK                         _______ _______ _______ _____ _____    ______ ____
ROOT
ATOM      1  N   LIG    1        1.531  -4.194  -2.442  0.00  0.00    -0.390 N 
ATOM      2  C   LIG    1        0.150  -4.695  -2.456  0.00  0.00    +0.310 C 
ATOM      3  H   LIG    1        2.050  -4.660  -1.713  0.00  0.00    +0.420 HD
ENDROOT
BRANCH   1   4
ATOM      4  C   LIG    1        2.163  -4.463  -3.741  0.00  0.00    +0.170 C 
ATOM      5  C   LIG    1        2.074  -5.959  -4.051  0.00  0.00    +0.080 C 
BRANCH   4   6
ATOM      6  C   LIG    1        3.632  -4.039  -3.691  0.00  0.00    -0.020 C 
ATOM      7  C   LIG    1        4.287  -4.309  -5.047  0.00  0.00    +0.070 C 
ATOM      8  C   LIG    1        4.357  -4.838  -2.607  0.00  0.00    +0.040 C 
ENDBRANCH   4   6
ENDBRANCH   1   4
BRANCH   1   9
ATOM      9  C   LIG    1        1.525  -2.747  -2.191  0.00  0.00    +0.240 C 
BRANCH   9  10
ATOM     10  C   LIG    1        1.000  -2.477  -0.779  0.00  0.00    +0.040 C 
BRANCH  10  11
ATOM     11  C   LIG    1        0.994  -0.969  -0.518  0.00  0.00    -0.060 C 
ATOM     12  C   LIG    1        2.417  -0.423  -0.646  0.00  0.00    +0.020 C 
ATOM     13  C   LIG    1        0.088  -0.278  -1.540  0.00  0.00    +0.020 C 
BRANCH  11  15
ATOM     14  C   LIG    1        0.462   0.809   1.155  0.00  0.00    +0.020 C 
ATOM     15  C   LIG    1        0.469  -0.699   0.894  0.00  0.00    +0.030 C 
ENDBRANCH  11  15
ENDBRANCH  10  11
ENDBRANCH   9  10
ENDBRANCH   1   9
TORSDOF 6
ENDMDL
MODEL       17
REMARK  Name = ZINC000608491917
REMARK                            x       y       z     vdW  Elec       q    Type
REMARK                         _______ _______ _______ _____ _____    ______ ____
ROOT
ATOM      1  N   LIG    1       -2.828  -4.062   0.007  0.00  0.00    -0.380 N 
ATOM      2  C   LIG    1       -2.221  -4.548   1.252  0.00  0.00    +0.250 C 
ATOM      3  C   LIG    1       -2.124  -6.075   1.214  0.00  0.00    +0.050 C 
ATOM      4  C   LIG    1       -3.528  -6.667   1.064  0.00  0.00    +0.030 C 
ATOM      5  C   LIG    1       -4.180  -6.095  -0.199  0.00  0.00    -0.020 C 
ATOM      6  C   LIG    1       -5.612  -6.621  -0.317  0.00  0.00    +0.070 C 
ATOM      7  C   LIG    1       -4.201  -4.568  -0.107  0.00  0.00    +0.250 C 
ATOM      8  H   LIG    1       -2.285  -4.386  -0.779  0.00  0.00    +0.420 HD
ENDROOT
BRANCH   1   9
ATOM      9  C   LIG    1       -2.848  -2.593   0.015  0.00  0.00    +0.240 C 
BRANCH   9  10
ATOM     10  C   LIG    1       -1.413  -2.063   0.004  0.00  0.00    +0.040 C 
BRANCH  10  11
ATOM     11  C   LIG    1       -1.433  -0.534   0.013  0.00  0.00    -0.060 C 
ATOM     12  C   LIG    1       -2.173  -0.027  -1.227  0.00  0.00    +0.020 C 
ATOM     13  C   LIG    1       -2.149  -0.040   1.272  0.00  0.00    +0.020 C 
BRANCH  11  15
ATOM     14  C   LIG    1       -0.019   1.526   0.010  0.00  0.00    +0.020 C 
ATOM     15  C   LIG    1        0.002  -0.004   0.002  0.00  0.00    +0.030 C 
ENDBRANCH  11  15
ENDBRANCH  10  11
ENDBRANCH   9  10
ENDBRANCH   1   9
TORSDOF 4
ENDMDL
MODEL       18
REMARK  Name = ZINC000608491824
REMARK                            x       y       z     vdW  Elec       q    Type
REMARK                         _______ _______ _______ _____ _____    ______ ____
ROOT
ATOM      1  N   LIG    1        1.138  -3.841  -2.679  0.00  0.00    -0.380 N 
ATOM      2  C   LIG    1       -0.015  -4.597  -3.185  0.00  0.00    +0.310 C 
ATOM      3  H   LIG    1        1.435  -4.230  -1.797  0.00  0.00    +0.420 HD
ENDROOT
BRANCH   1   4
ATOM      4  C   LIG    1        2.241  -3.923  -3.646  0.00  0.00    +0.170 C 
ATOM      5  C   LIG    1        3.470  -3.209  -3.080  0.00  0.00    +0.080 C 
BRANCH   4   6
ATOM      6  C   LIG    1        2.580  -5.392  -3.908  0.00  0.00    -0.010 C 
ATOM      7  C   LIG    1        3.025  -6.054  -2.603  0.00  0.00    +0.040 C 
ATOM      8  C   LIG    1        3.711  -5.479  -4.935  0.00  0.00    +0.070 C 
ENDBRANCH   4   6
ENDBRANCH   1   4
BRANCH   1   9
ATOM      9  C   LIG    1        0.757  -2.435  -2.490  0.00  0.00    +0.240 C 
BRANCH   9  10
ATOM     10  C   LIG    1       -0.304  -2.337  -1.392  0.00  0.00    +0.040 C 
BRANCH  10  11
ATOM     11  C   LIG    1       -0.701  -0.873  -1.195  0.00  0.00    -0.060 C 
ATOM     12  C   LIG    1        0.530  -0.061  -0.787  0.00  0.00    +0.020 C 
ATOM     13  C   LIG    1       -1.268  -0.318  -2.503  0.00  0.00    +0.020 C 
BRANCH  11  15
ATOM     14  C   LIG    1       -2.159   0.689   0.100  0.00  0.00    +0.020 C 
ATOM     15  C   LIG    1       -1.762  -0.775  -0.097  0.00  0.00    +0.030 C 
ENDBRANCH  11  15
ENDBRANCH  10  11
ENDBRANCH   9  10
ENDBRANCH   1   9
TORSDOF 6
ENDMDL
MODEL       19
REMARK  Name = ZINC000608491940
REMARK                            x       y       z     vdW  Elec       q    Type
REMARK                         _______ _______ _______ _____ _____    ______ ____
ROOT
ATOM      1  N   LIG    1        1.475  -3.990  -2.532  0.00  0.00    -0.380 N 
ATOM      2  C   LIG    1        0.101  -4.495  -2.639  0.00  0.00    +0.250 C 
ATOM      3  C   LIG    1        0.110  -6.024  -2.566  0.00  0.00    +0.050 C 
ATOM      4  C   LIG    1        0.951  -6.580  -3.719  0.00  0.00    +0.030 C 
ATOM      5  C   LIG    1        2.361  -5.987  -3.640  0.00  0.00    +0.060 C 
ATOM      6  C   LIG    1        2.268  -4.460  -3.674  0.00  0.00    +0.160 C 
ATOM      7  C   LIG    1        3.674  -3.862  -3.596  0.00  0.00    +0.080 C 
ATOM      8  H   LIG    1        1.890  -4.324  -1.675  0.00  0.00    +0.420 HD
ENDROOT
BRANCH   1   9
ATOM      9  C   LIG    1        1.455  -2.521  -2.524  0.00  0.00    +0.250 C 
BRANCH   9  10
ATOM     10  C   LIG    1        0.739  -2.027  -1.265  0.00  0.00    +0.040 C 
BRANCH  10  11
ATOM     11  C   LIG    1        0.718  -0.497  -1.257  0.00  0.00    -0.060 C 
ATOM     12  C   LIG    1        2.154   0.032  -1.268  0.00  0.00    +0.020 C 
ATOM     13  C   LIG    1       -0.022   0.009  -2.496  0.00  0.00    +0.020 C 
BRANCH  11  15
ATOM     14  C   LIG    1       -0.019   1.526   0.010  0.00  0.00    +0.020 C 
ATOM     15  C   LIG    1        0.002  -0.004   0.002  0.00  0.00    +0.030 C 
ENDBRANCH  11  15
ENDBRANCH  10  11
ENDBRANCH   9  10
ENDBRANCH   1   9
TORSDOF 4
ENDMDL
MODEL       20
REMARK  Name = ZINC001170073394
REMARK                            x       y       z     vdW  Elec       q    Type
REMARK                         _______ _______ _______ _____ _____    ______ ____
ROOT
ATOM      1  C   LIG    1       -2.927  -4.117  -0.336  0.00  0.00    +0.160 C 
ATOM      2  C   LIG    1       -4.322  -4.712  -0.545  0.00  0.00    +0.080 C 
ENDROOT
BRANCH   1   3
ATOM      3  N   LIG    1       -2.274  -4.788   0.796  0.00  0.00    -0.390 N 
ATOM      4  C   LIG    1       -3.138  -4.702   1.981  0.00  0.00    +0.320 C 
ATOM      5  H   LIG    1       -1.392  -4.338   0.990  0.00  0.00    +0.420 HD
BRANCH   3   6
ATOM      6  C   LIG    1       -2.041  -6.199   0.461  0.00  0.00    +0.250 C 
BRANCH   6   7
ATOM      7  C   LIG    1       -1.228  -6.860   1.576  0.00  0.00    -0.030 C 
ATOM      8  C   LIG    1        0.162  -6.225   1.639  0.00  0.00    +0.030 C 
ATOM      9  C   LIG    1       -1.092  -8.357   1.289  0.00  0.00    +0.070 C 
ENDBRANCH   6   7
ENDBRANCH   3   6
ENDBRANCH   1   3
BRANCH   1  10
ATOM     10  C   LIG    1       -3.049  -2.621  -0.041  0.00  0.00    +0.050 C 
BRANCH  10  11
ATOM     11  C   LIG    1       -1.653  -2.002   0.042  0.00  0.00    -0.000 C 
BRANCH  11  12
ATOM     12  C   LIG    1       -1.776  -0.486   0.210  0.00  0.00    +0.020 C 
BRANCH  12  14
ATOM     13  C   LIG    1       -0.499   1.658   0.336  0.00  0.00    +0.030 C 
ATOM     14  C   LIG    1       -0.379   0.133   0.293  0.00  0.00    -0.030 C 
ATOM     15  C   LIG    1        0.322  -0.359   1.561  0.00  0.00    +0.020 C 
ENDBRANCH  12  14
ENDBRANCH  11  12
ENDBRANCH  10  11
ENDBRANCH   1  10
TORSDOF 7
ENDMDL
MODEL       21
REMARK  Name = ZINC000608492329
REMARK                            x       y       z     vdW  Elec       q    Type
REMARK                         _______ _______ _______ _____ _____    ______ ____
ROOT
ATOM      1  N   LIG    1       -1.519  -0.879  -0.067  0.00  0.00    -0.390 N 
ATOM      2  H   LIG    1       -1.963  -0.294   0.625  0.00  0.00    +0.420 HD
ENDROOT
BRANCH   1   4
ATOM      3  C   LIG    1        0.595   0.140   0.635  0.00  0.00    +0.080 C 
ATOM      4  C   LIG    1       -0.298  -0.222  -0.554  0.00  0.00    +0.240 C 
ENDBRANCH   1   4
BRANCH   1   5
ATOM      5  C   LIG    1       -1.171  -2.172   0.538  0.00  0.00    +0.250 C 
BRANCH   5   6
ATOM      6  C   LIG    1       -2.420  -2.795   1.165  0.00  0.00    -0.030 C 
ATOM      7  C   LIG    1       -2.914  -1.905   2.308  0.00  0.00    +0.030 C 
ATOM      8  C   LIG    1       -2.079  -4.183   1.710  0.00  0.00    +0.070 C 
ENDBRANCH   5   6
ENDBRANCH   1   5
BRANCH   1   9
ATOM      9  C   LIG    1       -2.440  -1.096  -1.190  0.00  0.00    +0.240 C 
BRANCH   9  10
ATOM     10  C   LIG    1       -2.924   0.255  -1.721  0.00  0.00    +0.040 C 
BRANCH  10  11
ATOM     11  C   LIG    1       -3.981   0.029  -2.804  0.00  0.00    -0.060 C 
ATOM     12  C   LIG    1       -5.163  -0.740  -2.210  0.00  0.00    +0.020 C 
ATOM     13  C   LIG    1       -3.371  -0.781  -3.950  0.00  0.00    +0.020 C 
BRANCH  11  14
ATOM     14  C   LIG    1       -4.465   1.380  -3.334  0.00  0.00    +0.030 C 
ATOM     15  C   LIG    1       -5.522   1.153  -4.417  0.00  0.00    +0.020 C 
ENDBRANCH  11  14
ENDBRANCH  10  11
ENDBRANCH   9  10
ENDBRANCH   1   9
TORSDOF 7
ENDMDL
MODEL       22
REMARK  Name = ZINC000608492223
REMARK                            x       y       z     vdW  Elec       q    Type
REMARK                         _______ _______ _______ _____ _____    ______ ____
ROOT
ATOM      1  N   LIG    1        1.051  -4.915  -2.419  0.00  0.00    -0.380 N 
ATOM      2  H   LIG    1        0.224  -5.338  -2.025  0.00  0.00    +0.420 HD
ENDROOT
BRANCH   1   3
ATOM      3  C   LIG    1        1.806  -4.236  -1.357  0.00  0.00    +0.160 C 
ATOM      4  C   LIG    1        0.866  -3.323  -0.567  0.00  0.00    +0.090 C 
ATOM      5  C   LIG    1        2.925  -3.400  -1.981  0.00  0.00    +0.090 C 
ENDBRANCH   1   3
BRANCH   1   6
ATOM      6  C   LIG    1        0.660  -3.937  -3.443  0.00  0.00    +0.250 C 
BRANCH   6   7
ATOM      7  C   LIG    1       -0.542  -3.131  -2.946  0.00  0.00    +0.020 C 
BRANCH   7   8
ATOM      8  C   LIG    1       -1.091  -2.276  -4.090  0.00  0.00    +0.020 C 
BRANCH   8  10
ATOM      9  C   LIG    1       -2.843  -0.616  -4.737  0.00  0.00    +0.020 C 
ATOM     10  C   LIG    1       -2.293  -1.470  -3.593  0.00  0.00    +0.010 C 
ENDBRANCH   8  10
ENDBRANCH   7   8
ENDBRANCH   6   7
ENDBRANCH   1   6
BRANCH   1  11
ATOM     11  C   LIG    1        1.891  -5.954  -3.029  0.00  0.00    +0.260 C 
BRANCH  11  12
ATOM     12  C   LIG    1        2.136  -7.073  -2.015  0.00  0.00    -0.040 C 
ATOM     13  C   LIG    1        0.993  -8.100  -1.943  0.00  0.00    +0.020 C 
ATOM     14  C   LIG    1        2.079  -9.182  -1.821  0.00  0.00    +0.030 C 
ATOM     15  C   LIG    1        3.019  -8.210  -2.554  0.00  0.00    +0.040 C 
ENDBRANCH  11  12
ENDBRANCH   1  11
TORSDOF 7
ENDMDL
MODEL       23
REMARK  Name = ZINC001170072705
REMARK                            x       y       z     vdW  Elec       q    Type
REMARK                         _______ _______ _______ _____ _____    ______ ____
ROOT
ATOM      1  C   LIG    1        2.295   0.071  -1.165  0.00  0.00    +0.160 C 
ATOM      2  C   LIG    1        2.672  -0.402  -2.570  0.00  0.00    +0.080 C 
ENDROOT
BRANCH   1   3
ATOM      3  N   LIG    1        1.036  -0.565  -0.755  0.00  0.00    -0.360 N 
ATOM      4  H   LIG    1        0.726  -0.166   0.118  0.00  0.00    +0.420 HD
BRANCH   3   5
ATOM      5  C   LIG    1        0.015  -0.340  -1.786  0.00  0.00    +0.090 C 
ATOM      6  C   LIG    1       -1.405  -0.017  -1.316  0.00  0.00    +0.100 C 
ATOM      7  C   LIG    1       -0.536   1.079  -1.936  0.00  0.00    +0.090 C 
ENDBRANCH   3   5
BRANCH   3   9
ATOM      8  C   LIG    1        2.215  -2.248   0.579  0.00  0.00    +0.080 C 
ATOM      9  C   LIG    1        1.250  -2.009  -0.585  0.00  0.00    +0.250 C 
ENDBRANCH   3   9
ENDBRANCH   1   3
BRANCH   1  10
ATOM     10  C   LIG    1        2.120   1.591  -1.168  0.00  0.00    +0.050 C 
BRANCH  10  11
ATOM     11  C   LIG    1        1.686   2.058   0.223  0.00  0.00    -0.010 C 
BRANCH  11  12
ATOM     12  C   LIG    1        1.415   3.564   0.194  0.00  0.00    +0.020 C 
BRANCH  12  13
ATOM     13  C   LIG    1        1.106   4.053   1.610  0.00  0.00    -0.030 C 
ATOM     14  C   LIG    1       -0.211   3.439   2.086  0.00  0.00    +0.020 C 
ATOM     15  C   LIG    1        0.986   5.579   1.607  0.00  0.00    +0.030 C 
ENDBRANCH  12  13
ENDBRANCH  11  12
ENDBRANCH  10  11
ENDBRANCH   1  10
TORSDOF 7
ENDMDL
MODEL       24
REMARK  Name = ZINC001170073716
REMARK                            x       y       z     vdW  Elec       q    Type
REMARK                         _______ _______ _______ _____ _____    ______ ____
ROOT
ATOM      1  C   LIG    1       -2.933  -4.119  -0.334  0.00  0.00    +0.160 C 
ATOM      2  C   LIG    1       -4.327  -4.715  -0.537  0.00  0.00    +0.090 C 
ENDROOT
BRANCH   1   3
ATOM      3  N   LIG    1       -2.274  -4.788   0.796  0.00  0.00    -0.380 N 
ATOM      4  C   LIG    1       -3.133  -4.702   1.984  0.00  0.00    +0.310 C 
ATOM      5  H   LIG    1       -1.391  -4.337   0.986  0.00  0.00    +0.420 HD
BRANCH   3   6
ATOM      6  C   LIG    1       -2.041  -6.199   0.461  0.00  0.00    +0.280 C 
BRANCH   6   7
ATOM      7  C   LIG    1       -1.228  -6.860   1.576  0.00  0.00    -0.090 C 
ATOM      8  C   LIG    1       -1.894  -7.993   2.360  0.00  0.00    +0.050 C 
ATOM      9  C   LIG    1       -0.779  -8.307   1.360  0.00  0.00    +0.070 C 
ENDBRANCH   6   7
ENDBRANCH   3   6
ENDBRANCH   1   3
BRANCH   1  10
ATOM     10  C   LIG    1       -3.056  -2.623  -0.039  0.00  0.00    +0.050 C 
BRANCH  10  11
ATOM     11  C   LIG    1       -1.660  -2.002   0.041  0.00  0.00    -0.000 C 
BRANCH  11  12
ATOM     12  C   LIG    1       -1.784  -0.486   0.208  0.00  0.00    +0.020 C 
BRANCH  12  14
ATOM     13  C   LIG    1       -0.509   1.659   0.330  0.00  0.00    +0.030 C 
ATOM     14  C   LIG    1       -0.388   0.135   0.288  0.00  0.00    -0.030 C 
ATOM     15  C   LIG    1        0.317  -0.356   1.554  0.00  0.00    +0.020 C 
ENDBRANCH  12  14
ENDBRANCH  11  12
ENDBRANCH  10  11
ENDBRANCH   1  10
TORSDOF 7
ENDMDL
MODEL       25
REMARK  Name = ZINC000608492308
REMARK                            x       y       z     vdW  Elec       q    Type
REMARK                         _______ _______ _______ _____ _____    ______ ____
ROOT
ATOM      1  N   LIG    1       -0.747  -1.751  -1.543  0.00  0.00    -0.390 N 
ATOM      2  H   LIG    1       -1.095  -1.263  -0.732  0.00  0.00    +0.420 HD
ENDROOT
BRANCH   1   3
ATOM      3  C   LIG    1       -1.521  -1.352  -2.726  0.00  0.00    +0.240 C 
ATOM      4  C   LIG    1       -3.013  -1.551  -2.450  0.00  0.00    +0.080 C 
ENDBRANCH   1   3
BRANCH   1   5
ATOM      5  C   LIG    1        0.668  -1.413  -1.748  0.00  0.00    +0.240 C 
BRANCH   5   6
ATOM      6  C   LIG    1        0.822   0.106  -1.838  0.00  0.00    -0.020 C 
BRANCH   6   8
ATOM      7  C   LIG    1        0.475   2.262  -0.623  0.00  0.00    +0.040 C 
ATOM      8  C   LIG    1        0.445   0.738  -0.496  0.00  0.00    +0.000 C 
ENDBRANCH   6   8
BRANCH   6   9
ATOM      9  C   LIG    1        2.274   0.453  -2.174  0.00  0.00    +0.040 C 
ATOM     10  C   LIG    1        2.612  -0.069  -3.572  0.00  0.00    +0.020 C 
ENDBRANCH   6   9
ENDBRANCH   5   6
ENDBRANCH   1   5
BRANCH   1  11
ATOM     11  C   LIG    1       -0.879  -3.200  -1.337  0.00  0.00    +0.250 C 
BRANCH  11  12
ATOM     12  C   LIG    1       -0.205  -3.591  -0.021  0.00  0.00    +0.060 C 
BRANCH  12  13
ATOM     13  C   LIG    1       -0.285  -5.108   0.161  0.00  0.00    -0.060 C 
ATOM     14  C   LIG    1        1.032  -5.886   0.190  0.00  0.00    +0.030 C 
ATOM     15  C   LIG    1        0.232  -5.690   1.479  0.00  0.00    +0.030 C 
ENDBRANCH  12  13
ENDBRANCH  11  12
ENDBRANCH   1  11
TORSDOF 8
ENDMDL
MODEL       26
REMARK  Name = ZINC001170072914
REMARK                            x       y       z     vdW  Elec       q    Type
REMARK                         _______ _______ _______ _____ _____    ______ ____
ROOT
ATOM      1  C   LIG    1        1.553  -2.892  -2.481  0.00  0.00    +0.160 C 
ATOM      2  C   LIG    1        3.053  -2.774  -2.204  0.00  0.00    +0.080 C 
ENDROOT
BRANCH   1   3
ATOM      3  N   LIG    1        0.808  -2.124  -1.474  0.00  0.00    -0.380 N 
ATOM      4  H   LIG    1       -0.183  -2.251  -1.619  0.00  0.00    +0.420 HD
BRANCH   3   5
ATOM      5  C   LIG    1        1.142  -0.699  -1.599  0.00  0.00    +0.240 C 
ATOM      6  C   LIG    1        0.621  -0.168  -2.936  0.00  0.00    +0.080 C 
ENDBRANCH   3   5
BRANCH   3   7
ATOM      7  C   LIG    1        1.170  -2.596  -0.131  0.00  0.00    +0.240 C 
BRANCH   7   9
ATOM      8  C   LIG    1        0.682  -2.376   2.310  0.00  0.00    +0.060 C 
ATOM      9  C   LIG    1        0.304  -1.885   0.911  0.00  0.00    +0.020 C 
ENDBRANCH   7   9
ENDBRANCH   3   7
ENDBRANCH   1   3
BRANCH   1  10
ATOM     10  C   LIG    1        1.136  -4.362  -2.412  0.00  0.00    +0.050 C 
BRANCH  10  11
ATOM     11  C   LIG    1       -0.339  -4.492  -2.797  0.00  0.00    +0.010 C 
BRANCH  11  12
ATOM     12  C   LIG    1       -0.781  -5.949  -2.640  0.00  0.00    +0.020 C 
BRANCH  12  13
ATOM     13  C   LIG    1       -2.217  -6.103  -3.144  0.00  0.00    -0.030 C 
ATOM     14  C   LIG    1       -3.164  -5.313  -2.239  0.00  0.00    +0.020 C 
ATOM     15  C   LIG    1       -2.608  -7.582  -3.123  0.00  0.00    +0.030 C 
ENDBRANCH  12  13
ENDBRANCH  11  12
ENDBRANCH  10  11
ENDBRANCH   1  10
TORSDOF 8
ENDMDL
MODEL       27
REMARK  Name = ZINC000608492527
REMARK                            x       y       z     vdW  Elec       q    Type
REMARK                         _______ _______ _______ _____ _____    ______ ____
ROOT
ATOM      1  N   LIG    1       -2.913  -4.151  -0.009  0.00  0.00    -0.350 N 
ATOM      2  H   LIG    1       -2.428  -4.524   0.793  0.00  0.00    +0.420 HD
ENDROOT
BRANCH   1   3
ATOM      3  C   LIG    1       -2.236  -4.589  -1.237  0.00  0.00    +0.090 C 
ATOM      4  C   LIG    1       -0.921  -5.355  -1.084  0.00  0.00    +0.100 C 
ATOM      5  C   LIG    1       -2.189  -6.092  -1.520  0.00  0.00    +0.090 C 
ENDBRANCH   1   3
BRANCH   1   6
ATOM      6  C   LIG    1       -4.299  -4.637  -0.013  0.00  0.00    +0.160 C 
ATOM      7  C   LIG    1       -5.075  -3.955  -1.141  0.00  0.00    +0.080 C 
ATOM      8  C   LIG    1       -4.957  -4.312   1.329  0.00  0.00    +0.090 C 
ENDBRANCH   1   6
BRANCH   1   9
ATOM      9  C   LIG    1       -2.909  -2.683   0.055  0.00  0.00    +0.240 C 
BRANCH   9  10
ATOM     10  C   LIG    1       -1.470  -2.182   0.185  0.00  0.00    +0.040 C 
BRANCH  10  11
ATOM     11  C   LIG    1       -1.466  -0.653   0.252  0.00  0.00    -0.060 C 
ATOM     12  C   LIG    1       -2.090  -0.085  -1.025  0.00  0.00    +0.020 C 
ATOM     13  C   LIG    1       -2.277  -0.194   1.464  0.00  0.00    +0.020 C 
BRANCH  11  15
ATOM     14  C   LIG    1       -0.022   1.377   0.448  0.00  0.00    +0.020 C 
ATOM     15  C   LIG    1       -0.026  -0.152   0.382  0.00  0.00    +0.030 C 
ENDBRANCH  11  15
ENDBRANCH  10  11
ENDBRANCH   9  10
ENDBRANCH   1   9
TORSDOF 6
ENDMDL
MODEL       28
REMARK  Name = ZINC000608492230
REMARK                            x       y       z     vdW  Elec       q    Type
REMARK                         _______ _______ _______ _____ _____    ______ ____
ROOT
ATOM      1  N   LIG    1        1.153  -5.031  -2.362  0.00  0.00    -0.380 N 
ATOM      2  H   LIG    1        0.320  -5.430  -1.956  0.00  0.00    +0.420 HD
ENDROOT
BRANCH   1   3
ATOM      3  C   LIG    1        2.002  -4.482  -1.296  0.00  0.00    +0.160 C 
ATOM      4  C   LIG    1        1.165  -3.573  -0.394  0.00  0.00    +0.090 C 
ATOM      5  C   LIG    1        3.143  -3.674  -1.919  0.00  0.00    +0.090 C 
ENDBRANCH   1   3
BRANCH   1   6
ATOM      6  C   LIG    1        0.778  -3.956  -3.291  0.00  0.00    +0.240 C 
BRANCH   6   7
ATOM      7  C   LIG    1       -0.341  -3.115  -2.673  0.00  0.00    +0.020 C 
BRANCH   7   8
ATOM      8  C   LIG    1       -0.882  -2.139  -3.720  0.00  0.00    +0.020 C 
BRANCH   8  10
ATOM      9  C   LIG    1       -2.542  -0.322  -4.148  0.00  0.00    +0.020 C 
ATOM     10  C   LIG    1       -2.001  -1.298  -3.102  0.00  0.00    +0.010 C 
ENDBRANCH   8  10
ENDBRANCH   7   8
ENDBRANCH   6   7
ENDBRANCH   1   6
BRANCH   1  11
ATOM     11  C   LIG    1        1.891  -6.072  -3.090  0.00  0.00    +0.250 C 
BRANCH  11  12
ATOM     12  C   LIG    1        2.202  -7.232  -2.143  0.00  0.00    +0.070 C 
BRANCH  12  13
ATOM     13  C   LIG    1        3.017  -8.293  -2.886  0.00  0.00    -0.060 C 
ATOM     14  C   LIG    1        4.438  -8.567  -2.391  0.00  0.00    +0.030 C 
ATOM     15  C   LIG    1        3.330  -9.593  -2.142  0.00  0.00    +0.030 C 
ENDBRANCH  12  13
ENDBRANCH  11  12
ENDBRANCH   1  11
TORSDOF 8
ENDMDL
MODEL       29
REMARK  Name = ZINC000608492340
REMARK                            x       y       z     vdW  Elec       q    Type
REMARK                         _______ _______ _______ _____ _____    ______ ____
ROOT
ATOM      1  N   LIG    1        1.589  -2.294   2.487  0.00  0.00    -0.380 N 
ATOM      2  H   LIG    1        2.414  -1.829   2.837  0.00  0.00    +0.420 HD
ENDROOT
BRANCH   1   3
ATOM      3  C   LIG    1        0.526  -2.232   3.499  0.00  0.00    +0.240 C 
ATOM      4  C   LIG    1       -0.716  -2.958   2.978  0.00  0.00    +0.080 C 
ENDBRANCH   1   3
BRANCH   1   5
ATOM      5  C   LIG    1        1.135  -1.629   1.258  0.00  0.00    +0.250 C 
BRANCH   5   6
ATOM      6  C   LIG    1        0.915  -0.140   1.536  0.00  0.00    -0.010 C 
BRANCH   6   8
ATOM      7  C   LIG    1        2.001   1.962   2.339  0.00  0.00    +0.040 C 
ATOM      8  C   LIG    1        2.242   0.504   1.942  0.00  0.00    +0.000 C 
ENDBRANCH   6   8
BRANCH   6   9
ATOM      9  C   LIG    1        0.383   0.540   0.273  0.00  0.00    +0.040 C 
ATOM     10  C   LIG    1       -0.998  -0.023  -0.066  0.00  0.00    +0.020 C 
ENDBRANCH   6   9
ENDBRANCH   5   6
ENDBRANCH   1   5
BRANCH   1  11
ATOM     11  C   LIG    1        1.906  -3.698   2.195  0.00  0.00    +0.250 C 
BRANCH  11  12
ATOM     12  C   LIG    1        2.536  -4.346   3.430  0.00  0.00    -0.030 C 
ATOM     13  C   LIG    1        1.509  -4.963   4.394  0.00  0.00    +0.020 C 
ATOM     14  C   LIG    1        2.496  -6.128   4.576  0.00  0.00    +0.030 C 
ATOM     15  C   LIG    1        3.046  -5.776   3.183  0.00  0.00    +0.040 C 
ENDBRANCH  11  12
ENDBRANCH   1  11
TORSDOF 7
ENDMDL
MODEL       30
REMARK  Name = ZINC001170078787
REMARK                            x       y       z     vdW  Elec       q    Type
REMARK                         _______ _______ _______ _____ _____    ______ ____
ROOT
ATOM      1  C   LIG    1       -2.949  -4.112  -0.195  0.00  0.00    +0.160 C 
ATOM      2  C   LIG    1       -4.351  -4.662  -0.464  0.00  0.00    +0.090 C 
ENDROOT
BRANCH   1   3
ATOM      3  N   LIG    1       -2.418  -4.706   1.039  0.00  0.00    -0.390 N 
ATOM      4  C   LIG    1       -2.337  -6.176   0.903  0.00  0.00    +0.250 C 
ATOM      5  C   LIG    1       -1.079  -6.631   1.667  0.00  0.00    +0.060 C 
ATOM      6  C   LIG    1       -0.444  -5.331   2.210  0.00  0.00    -0.010 C 
ATOM      7  C   LIG    1        1.081  -5.385   2.100  0.00  0.00    +0.070 C 
ATOM      8  C   LIG    1       -1.027  -4.241   1.274  0.00  0.00    +0.260 C 
ATOM      9  H   LIG    1       -3.004  -4.461   1.824  0.00  0.00    +0.420 HD
ENDBRANCH   1   3
BRANCH   1  10
ATOM     10  C   LIG    1       -3.019  -2.591  -0.040  0.00  0.00    +0.040 C 
BRANCH  10  11
ATOM     11  C   LIG    1       -3.440  -1.962  -1.370  0.00  0.00    +0.030 C 
BRANCH  11  12
ATOM     12  C   LIG    1       -3.529  -0.443  -1.210  0.00  0.00    +0.020 C 
BRANCH  12  14
ATOM     13  C   LIG    1       -4.159   1.690  -2.348  0.00  0.00    +0.030 C 
ATOM     14  C   LIG    1       -3.949   0.186  -2.539  0.00  0.00    -0.030 C 
ATOM     15  C   LIG    1       -2.855  -0.047  -3.583  0.00  0.00    +0.020 C 
ENDBRANCH  12  14
ENDBRANCH  11  12
ENDBRANCH  10  11
ENDBRANCH   1  10
TORSDOF 5
ENDMDL
MODEL       31
REMARK  Name = ZINC000608492138
REMARK                            x       y       z     vdW  Elec       q    Type
REMARK                         _______ _______ _______ _____ _____    ______ ____
ROOT
ATOM      1  N   LIG    1       -0.726  -2.462   1.110  0.00  0.00    -0.380 N 
ATOM      2  C   LIG    1       -0.512  -3.915   1.079  0.00  0.00    +0.310 C 
ATOM      3  H   LIG    1       -1.298  -2.223   1.905  0.00  0.00    +0.420 HD
ENDROOT
BRANCH   1   4
ATOM      4  C   LIG    1       -1.401  -2.040  -0.124  0.00  0.00    +0.160 C 
ATOM      5  C   LIG    1       -0.597  -2.519  -1.335  0.00  0.00    +0.080 C 
BRANCH   4   6
ATOM      6  C   LIG    1       -2.804  -2.647  -0.171  0.00  0.00    +0.050 C 
BRANCH   6   8
ATOM      7  C   LIG    1       -5.086  -2.579   0.846  0.00  0.00    +0.030 C 
ATOM      8  C   LIG    1       -3.648  -2.070   0.968  0.00  0.00    -0.000 C 
ENDBRANCH   6   8
ENDBRANCH   4   6
ENDBRANCH   1   4
BRANCH   1   9
ATOM      9  C   LIG    1        0.571  -1.779   1.217  0.00  0.00    +0.240 C 
BRANCH   9  10
ATOM     10  C   LIG    1        1.206  -2.102   2.571  0.00  0.00    +0.040 C 
BRANCH  10  11
ATOM     11  C   LIG    1        2.557  -1.391   2.683  0.00  0.00    -0.060 C 
ATOM     12  C   LIG    1        2.348   0.121   2.564  0.00  0.00    +0.020 C 
ATOM     13  C   LIG    1        3.479  -1.868   1.559  0.00  0.00    +0.020 C 
BRANCH  11  14
ATOM     14  C   LIG    1        3.192  -1.713   4.037  0.00  0.00    +0.030 C 
ATOM     15  C   LIG    1        4.542  -1.002   4.148  0.00  0.00    +0.020 C 
ENDBRANCH  11  14
ENDBRANCH  10  11
ENDBRANCH   9  10
ENDBRANCH   1   9
TORSDOF 7
ENDMDL
MODEL       32
REMARK  Name = ZINC001170072913
REMARK                            x       y       z     vdW  Elec       q    Type
REMARK                         _______ _______ _______ _____ _____    ______ ____
ROOT
ATOM      1  C   LIG    1        1.403  -2.353  -2.355  0.00  0.00    +0.160 C 
ATOM      2  C   LIG    1        1.258  -3.842  -2.674  0.00  0.00    +0.090 C 
ENDROOT
BRANCH   1   3
ATOM      3  N   LIG    1        0.721  -2.055  -1.088  0.00  0.00    -0.380 N 
ATOM      4  H   LIG    1       -0.081  -2.660  -0.987  0.00  0.00    +0.420 HD
BRANCH   3   5
ATOM      5  C   LIG    1        0.281  -0.654  -1.087  0.00  0.00    +0.230 C 
ATOM      6  C   LIG    1       -0.769  -0.448  -2.180  0.00  0.00    +0.080 C 
ENDBRANCH   3   5
BRANCH   3   7
ATOM      7  C   LIG    1        1.647  -2.279   0.030  0.00  0.00    +0.250 C 
BRANCH   7   9
ATOM      8  C   LIG    1        1.856  -2.369   2.519  0.00  0.00    +0.060 C 
ATOM      9  C   LIG    1        0.892  -2.136   1.354  0.00  0.00    +0.010 C 
ENDBRANCH   7   9
ENDBRANCH   3   7
ENDBRANCH   1   3
BRANCH   1  10
ATOM     10  C   LIG    1        2.886  -2.000  -2.231  0.00  0.00    +0.050 C 
BRANCH  10  11
ATOM     11  C   LIG    1        3.039  -0.485  -2.081  0.00  0.00    +0.000 C 
BRANCH  11  12
ATOM     12  C   LIG    1        4.525  -0.123  -2.057  0.00  0.00    +0.020 C 
BRANCH  12  13
ATOM     13  C   LIG    1        4.678   1.392  -1.907  0.00  0.00    -0.030 C 
ATOM     14  C   LIG    1        4.111   2.088  -3.146  0.00  0.00    +0.020 C 
ATOM     15  C   LIG    1        6.160   1.743  -1.759  0.00  0.00    +0.030 C 
ENDBRANCH  12  13
ENDBRANCH  11  12
ENDBRANCH  10  11
ENDBRANCH   1  10
TORSDOF 8
ENDMDL
MODEL       33
REMARK  Name = ZINC000608492137
REMARK                            x       y       z     vdW  Elec       q    Type
REMARK                         _______ _______ _______ _____ _____    ______ ____
ROOT
ATOM      1  N   LIG    1       -0.923  -2.634  -1.380  0.00  0.00    -0.380 N 
ATOM      2  C   LIG    1        0.508  -2.304  -1.433  0.00  0.00    +0.310 C 
ATOM      3  H   LIG    1       -1.361  -2.367  -2.249  0.00  0.00    +0.420 HD
ENDROOT
BRANCH   1   4
ATOM      4  C   LIG    1       -1.552  -1.907  -0.270  0.00  0.00    +0.160 C 
ATOM      5  C   LIG    1       -0.964  -2.392   1.056  0.00  0.00    +0.080 C 
BRANCH   4   6
ATOM      6  C   LIG    1       -3.061  -2.163  -0.283  0.00  0.00    +0.050 C 
BRANCH   6   8
ATOM      7  C   LIG    1       -5.173  -1.841  -1.578  0.00  0.00    +0.030 C 
ATOM      8  C   LIG    1       -3.663  -1.593  -1.569  0.00  0.00    -0.010 C 
ENDBRANCH   6   8
ENDBRANCH   4   6
ENDBRANCH   1   4
BRANCH   1   9
ATOM      9  C   LIG    1       -1.085  -4.079  -1.174  0.00  0.00    +0.240 C 
BRANCH   9  10
ATOM     10  C   LIG    1       -0.526  -4.833  -2.382  0.00  0.00    +0.040 C 
BRANCH  10  11
ATOM     11  C   LIG    1       -0.695  -6.338  -2.167  0.00  0.00    -0.060 C 
ATOM     12  C   LIG    1       -2.180  -6.667  -2.004  0.00  0.00    +0.020 C 
ATOM     13  C   LIG    1        0.062  -6.762  -0.906  0.00  0.00    +0.020 C 
BRANCH  11  14
ATOM     14  C   LIG    1       -0.136  -7.092  -3.375  0.00  0.00    +0.030 C 
ATOM     15  C   LIG    1       -0.305  -8.598  -3.159  0.00  0.00    +0.020 C 
ENDBRANCH  11  14
ENDBRANCH  10  11
ENDBRANCH   9  10
ENDBRANCH   1   9
TORSDOF 7
ENDMDL
MODEL       34
REMARK  Name = ZINC001170084900
REMARK                            x       y       z     vdW  Elec       q    Type
REMARK                         _______ _______ _______ _____ _____    ______ ____
ROOT
ATOM      1  C   LIG    1       -2.943  -4.436  -0.053  0.00  0.00    +0.160 C 
ATOM      2  C   LIG    1       -4.467  -4.501   0.059  0.00  0.00    +0.080 C 
ENDROOT
BRANCH   1   3
ATOM      3  N   LIG    1       -2.339  -5.022   1.151  0.00  0.00    -0.380 N 
ATOM      4  C   LIG    1       -3.203  -4.760   2.310  0.00  0.00    +0.310 C 
ATOM      5  H   LIG    1       -1.432  -4.608   1.308  0.00  0.00    +0.420 HD
BRANCH   3   6
ATOM      6  C   LIG    1       -2.190  -6.472   0.969  0.00  0.00    +0.050 C 
ATOM      7  C   LIG    1       -3.548  -7.083   0.615  0.00  0.00    +0.090 C 
ATOM      8  C   LIG    1       -1.672  -7.099   2.265  0.00  0.00    +0.080 C 
ATOM      9  C   LIG    1       -1.197  -6.745  -0.162  0.00  0.00    +0.090 C 
ENDBRANCH   3   6
ENDBRANCH   1   3
BRANCH   1  10
ATOM     10  C   LIG    1       -2.502  -2.977  -0.186  0.00  0.00    +0.060 C 
BRANCH  10  11
ATOM     11  C   LIG    1       -0.994  -2.920  -0.436  0.00  0.00    -0.000 C 
BRANCH  11  12
ATOM     12  C   LIG    1       -0.575  -1.473  -0.701  0.00  0.00    +0.020 C 
BRANCH  12  14
ATOM     13  C   LIG    1        1.291  -0.010  -1.489  0.00  0.00    +0.030 C 
ATOM     14  C   LIG    1        0.909  -1.431  -1.070  0.00  0.00    -0.030 C 
ATOM     15  C   LIG    1        1.748  -1.849   0.140  0.00  0.00    +0.020 C 
ENDBRANCH  12  14
ENDBRANCH  11  12
ENDBRANCH  10  11
ENDBRANCH   1  10
TORSDOF 6
ENDMDL
MODEL       35
REMARK  Name = ZINC001170073807
REMARK                            x       y       z     vdW  Elec       q    Type
REMARK                         _______ _______ _______ _____ _____    ______ ____
ROOT
ATOM      1  C   LIG    1       -2.713  -4.108  -0.207  0.00  0.00    +0.160 C 
ATOM      2  C   LIG    1       -4.112  -4.726  -0.164  0.00  0.00    +0.080 C 
ENDROOT
BRANCH   1   3
ATOM      3  N   LIG    1       -2.062  -4.460  -1.476  0.00  0.00    -0.390 N 
ATOM      4  C   LIG    1       -0.649  -4.000  -1.472  0.00  0.00    +0.250 C 
ATOM      5  C   LIG    1        0.019  -4.897  -2.544  0.00  0.00    +0.070 C 
ATOM      6  C   LIG    1       -0.679  -6.261  -2.338  0.00  0.00    +0.070 C 
ATOM      7  C   LIG    1       -2.007  -5.930  -1.630  0.00  0.00    +0.170 C 
ATOM      8  C   LIG    1       -3.184  -6.416  -2.478  0.00  0.00    +0.090 C 
ATOM      9  H   LIG    1       -2.560  -4.048  -2.250  0.00  0.00    +0.420 HD
ENDBRANCH   1   3
BRANCH   1  10
ATOM     10  C   LIG    1       -2.824  -2.586  -0.097  0.00  0.00    +0.030 C 
BRANCH  10  11
ATOM     11  C   LIG    1       -3.373  -2.213   1.282  0.00  0.00    +0.030 C 
BRANCH  11  12
ATOM     12  C   LIG    1       -3.357  -0.692   1.443  0.00  0.00    +0.010 C 
BRANCH  12  14
ATOM     13  C   LIG    1       -3.776   1.190   3.032  0.00  0.00    +0.030 C 
ATOM     14  C   LIG    1       -3.907  -0.320   2.822  0.00  0.00    -0.030 C 
ATOM     15  C   LIG    1       -5.381  -0.721   2.908  0.00  0.00    +0.020 C 
ENDBRANCH  12  14
ENDBRANCH  11  12
ENDBRANCH  10  11
ENDBRANCH   1  10
TORSDOF 5
ENDMDL
MODEL       36
REMARK  Name = ZINC000608493026
REMARK                            x       y       z     vdW  Elec       q    Type
REMARK                         _______ _______ _______ _____ _____    ______ ____
ROOT
ATOM      1  N   LIG    1       -2.828  -4.062   0.007  0.00  0.00    -0.390 N 
ATOM      2  C   LIG    1       -2.224  -4.550   1.254  0.00  0.00    +0.300 C 
ATOM      3  H   LIG    1       -2.285  -4.387  -0.779  0.00  0.00    +0.420 HD
ENDROOT
BRANCH   1   4
ATOM      4  C   LIG    1       -2.848  -2.593   0.015  0.00  0.00    +0.240 C 
BRANCH   4   5
ATOM      5  C   LIG    1       -1.413  -2.063   0.004  0.00  0.00    +0.040 C 
BRANCH   5   6
ATOM      6  C   LIG    1       -1.433  -0.534   0.013  0.00  0.00    -0.060 C 
ATOM      7  C   LIG    1       -2.173  -0.027  -1.227  0.00  0.00    +0.020 C 
ATOM      8  C   LIG    1       -2.149  -0.040   1.272  0.00  0.00    +0.020 C 
BRANCH   6  10
ATOM      9  C   LIG    1       -0.019   1.526   0.010  0.00  0.00    +0.020 C 
ATOM     10  C   LIG    1        0.002  -0.004   0.002  0.00  0.00    +0.030 C 
ENDBRANCH   6  10
ENDBRANCH   5   6
ENDBRANCH   4   5
ENDBRANCH   1   4
BRANCH   1  11
ATOM     11  C   LIG    1       -4.202  -4.570  -0.103  0.00  0.00    +0.250 C 
BRANCH  11  12
ATOM     12  C   LIG    1       -4.173  -6.093  -0.237  0.00  0.00    +0.030 C 
BRANCH  12  13
ATOM     13  C   LIG    1       -5.604  -6.622  -0.352  0.00  0.00    -0.010 C 
ATOM     14  C   LIG    1       -6.357  -6.345   0.951  0.00  0.00    +0.020 C 
ATOM     15  C   LIG    1       -5.572  -8.130  -0.610  0.00  0.00    +0.040 C 
ENDBRANCH  12  13
ENDBRANCH  11  12
ENDBRANCH   1  11
TORSDOF 7
ENDMDL
MODEL       37
REMARK  Name = ZINC000681018961
REMARK                            x       y       z     vdW  Elec       q    Type
REMARK                         _______ _______ _______ _____ _____    ______ ____
ROOT
ATOM      1  N   LIG    1       -0.002  -3.747  -3.298  0.00  0.00    -0.380 N 
ATOM      2  H   LIG    1       -0.154  -3.398  -4.233  0.00  0.00    +0.420 HD
ENDROOT
BRANCH   1   3
ATOM      3  C   LIG    1        0.023  -5.215  -3.321  0.00  0.00    +0.150 C 
ATOM      4  C   LIG    1       -1.235  -5.768  -4.035  0.00  0.00    +0.040 C 
ATOM      5  C   LIG    1       -0.775  -7.172  -4.500  0.00  0.00    +0.050 C 
ATOM      6  C   LIG    1        0.692  -6.966  -4.930  0.00  0.00    +0.030 C 
ATOM      7  C   LIG    1        1.199  -5.722  -4.180  0.00  0.00    +0.030 C 
ENDBRANCH   1   3
BRANCH   1   8
ATOM      8  C   LIG    1        1.281  -3.243  -2.790  0.00  0.00    +0.240 C 
ATOM      9  C   LIG    1        1.504  -3.759  -1.367  0.00  0.00    +0.080 C 
ENDBRANCH   1   8
BRANCH   1  10
ATOM     10  C   LIG    1       -1.089  -3.288  -2.423  0.00  0.00    +0.250 C 
BRANCH  10  11
ATOM     11  C   LIG    1       -1.195  -1.764  -2.496  0.00  0.00    +0.070 C 
BRANCH  11  13
ATOM     12  C   LIG    1       -2.079  -0.376  -0.693  0.00  0.00    +0.000 C 
ATOM     13  C   LIG    1       -2.310  -1.294  -1.598  0.00  0.00    -0.070 C 
BRANCH  12  15
ATOM     14  C   LIG    1       -0.982   1.848  -0.655  0.00  0.00    +0.030 C 
ATOM     15  C   LIG    1       -0.751   0.335  -0.663  0.00  0.00    +0.040 C 
ENDBRANCH  12  15
ENDBRANCH  11  13
ENDBRANCH  10  11
ENDBRANCH   1  10
TORSDOF 6
ENDMDL
MODEL       38
REMARK  Name = ZINC000681019833
REMARK                            x       y       z     vdW  Elec       q    Type
REMARK                         _______ _______ _______ _____ _____    ______ ____
ROOT
ATOM      1  N   LIG    1        0.041  -3.599  -3.026  0.00  0.00    -0.380 N 
ATOM      2  H   LIG    1       -0.024  -3.046  -3.868  0.00  0.00    +0.420 HD
ENDROOT
BRANCH   1   3
ATOM      3  C   LIG    1       -0.013  -5.025  -3.373  0.00  0.00    +0.160 C 
ATOM      4  C   LIG    1       -1.284  -5.308  -4.176  0.00  0.00    +0.080 C 
BRANCH   3   5
ATOM      5  C   LIG    1        1.212  -5.393  -4.212  0.00  0.00    -0.010 C 
ATOM      6  C   LIG    1        1.203  -4.583  -5.510  0.00  0.00    +0.040 C 
ATOM      7  C   LIG    1        1.175  -6.886  -4.542  0.00  0.00    +0.070 C 
ENDBRANCH   3   5
ENDBRANCH   1   3
BRANCH   1   8
ATOM      8  C   LIG    1        1.309  -3.308  -2.345  0.00  0.00    +0.240 C 
ATOM      9  C   LIG    1        1.418  -4.163  -1.081  0.00  0.00    +0.080 C 
ENDBRANCH   1   8
BRANCH   1  10
ATOM     10  C   LIG    1       -1.080  -3.268  -2.136  0.00  0.00    +0.240 C 
BRANCH  10  11
ATOM     11  C   LIG    1       -1.097  -1.761  -1.875  0.00  0.00    +0.070 C 
BRANCH  11  13
ATOM     12  C   LIG    1       -2.033  -0.734   0.132  0.00  0.00    +0.000 C 
ATOM     13  C   LIG    1       -2.247  -1.422  -0.962  0.00  0.00    -0.070 C 
BRANCH  12  15
ATOM     14  C   LIG    1       -0.814   1.345   0.715  0.00  0.00    +0.030 C 
ATOM     15  C   LIG    1       -0.672  -0.144   0.398  0.00  0.00    +0.040 C 
ENDBRANCH  12  15
ENDBRANCH  11  13
ENDBRANCH  10  11
ENDBRANCH   1  10
TORSDOF 7
ENDMDL
MODEL       39
REMARK  Name = ZINC000681019832
REMARK                            x       y       z     vdW  Elec       q    Type
REMARK                         _______ _______ _______ _____ _____    ______ ____
ROOT
ATOM      1  N   LIG    1       -5.381  -2.184  -2.345  0.00  0.00    -0.380 N 
ATOM      2  H   LIG    1       -5.509  -3.177  -2.225  0.00  0.00    +0.420 HD
ENDROOT
BRANCH   1   3
ATOM      3  C   LIG    1       -5.826  -1.792  -3.689  0.00  0.00    +0.160 C 
ATOM      4  C   LIG    1       -5.093  -2.635  -4.735  0.00  0.00    +0.080 C 
BRANCH   3   5
ATOM      5  C   LIG    1       -7.333  -2.021  -3.814  0.00  0.00    -0.010 C 
ATOM      6  C   LIG    1       -7.641  -3.507  -3.621  0.00  0.00    +0.040 C 
ATOM      7  C   LIG    1       -7.803  -1.578  -5.202  0.00  0.00    +0.070 C 
ENDBRANCH   3   5
ENDBRANCH   1   3
BRANCH   1   8
ATOM      8  C   LIG    1       -6.170  -1.462  -1.338  0.00  0.00    +0.240 C 
ATOM      9  C   LIG    1       -6.069   0.043  -1.594  0.00  0.00    +0.070 C 
ENDBRANCH   1   8
BRANCH   1  10
ATOM     10  C   LIG    1       -3.959  -1.851  -2.184  0.00  0.00    +0.240 C 
BRANCH  10  11
ATOM     11  C   LIG    1       -3.464  -2.371  -0.833  0.00  0.00    +0.070 C 
BRANCH  11  13
ATOM     12  C   LIG    1       -1.605  -1.361   0.386  0.00  0.00    +0.000 C 
ATOM     13  C   LIG    1       -2.005  -2.030  -0.667  0.00  0.00    -0.070 C 
BRANCH  12  15
ATOM     14  C   LIG    1        0.005   0.491   0.743  0.00  0.00    +0.020 C 
ATOM     15  C   LIG    1       -0.146  -1.019   0.551  0.00  0.00    +0.040 C 
ENDBRANCH  12  15
ENDBRANCH  11  13
ENDBRANCH  10  11
ENDBRANCH   1  10
TORSDOF 7
ENDMDL
MODEL       40
REMARK  Name = ZINC001170073393
REMARK                            x       y       z     vdW  Elec       q    Type
REMARK                         _______ _______ _______ _____ _____    ______ ____
ROOT
ATOM      1  C   LIG    1       -2.495  -4.069  -0.263  0.00  0.00    +0.160 C 
ATOM      2  C   LIG    1       -3.958  -4.381   0.056  0.00  0.00    +0.080 C 
ENDROOT
BRANCH   1   3
ATOM      3  N   LIG    1       -2.229  -4.363  -1.678  0.00  0.00    -0.390 N 
ATOM      4  C   LIG    1       -2.393  -5.803  -1.917  0.00  0.00    +0.310 C 
ATOM      5  H   LIG    1       -1.286  -4.089  -1.907  0.00  0.00    +0.420 HD
BRANCH   3   6
ATOM      6  C   LIG    1       -3.174  -3.616  -2.519  0.00  0.00    +0.240 C 
BRANCH   6   7
ATOM      7  C   LIG    1       -2.831  -3.841  -3.994  0.00  0.00    -0.030 C 
ATOM      8  C   LIG    1       -1.457  -3.240  -4.295  0.00  0.00    +0.030 C 
ATOM      9  C   LIG    1       -3.888  -3.167  -4.871  0.00  0.00    +0.070 C 
ENDBRANCH   6   7
ENDBRANCH   3   6
ENDBRANCH   1   3
BRANCH   1  10
ATOM     10  C   LIG    1       -2.219  -2.589   0.010  0.00  0.00    +0.050 C 
BRANCH  10  11
ATOM     11  C   LIG    1       -0.734  -2.298  -0.216  0.00  0.00    -0.010 C 
BRANCH  11  12
ATOM     12  C   LIG    1       -0.458  -0.817   0.051  0.00  0.00    +0.020 C 
BRANCH  12  14
ATOM     13  C   LIG    1        1.280   0.977  -0.031  0.00  0.00    +0.030 C 
ATOM     14  C   LIG    1        1.027  -0.525  -0.175  0.00  0.00    -0.030 C 
ATOM     15  C   LIG    1        1.859  -1.284   0.861  0.00  0.00    +0.020 C 
ENDBRANCH  12  14
ENDBRANCH  11  12
ENDBRANCH  10  11
ENDBRANCH   1  10
TORSDOF 7
ENDMDL
MODEL       41
REMARK  Name = ZINC000681018625
REMARK                            x       y       z     vdW  Elec       q    Type
REMARK                         _______ _______ _______ _____ _____    ______ ____
ROOT
ATOM      1  N   LIG    1       -5.483  -2.992  -3.367  0.00  0.00    -0.380 N 
ATOM      2  C   LIG    1       -6.310  -3.130  -2.161  0.00  0.00    +0.300 C 
ATOM      3  H   LIG    1       -5.273  -3.907  -3.737  0.00  0.00    +0.420 HD
ENDROOT
BRANCH   1   4
ATOM      4  C   LIG    1       -6.212  -2.211  -4.375  0.00  0.00    +0.170 C 
ATOM      5  C   LIG    1       -5.623  -2.487  -5.759  0.00  0.00    +0.090 C 
BRANCH   4   6
ATOM      6  C   LIG    1       -6.086  -0.720  -4.054  0.00  0.00    -0.080 C 
ATOM      7  C   LIG    1       -6.436  -0.483  -2.584  0.00  0.00    +0.050 C 
ATOM      8  C   LIG    1       -7.044   0.076  -4.942  0.00  0.00    +0.070 C 
ATOM      9  C   LIG    1       -4.649  -0.262  -4.316  0.00  0.00    +0.050 C 
ENDBRANCH   4   6
ENDBRANCH   1   4
BRANCH   1  10
ATOM     10  C   LIG    1       -4.231  -2.303  -3.026  0.00  0.00    +0.250 C 
BRANCH  10  11
ATOM     11  C   LIG    1       -3.331  -3.248  -2.226  0.00  0.00    +0.070 C 
BRANCH  11  13
ATOM     12  C   LIG    1       -1.661  -2.464  -0.627  0.00  0.00    +0.000 C 
ATOM     13  C   LIG    1       -2.046  -2.542  -1.877  0.00  0.00    -0.070 C 
BRANCH  12  15
ATOM     14  C   LIG    1       -0.659  -0.670   0.761  0.00  0.00    +0.020 C 
ATOM     15  C   LIG    1       -0.377  -1.758  -0.277  0.00  0.00    +0.040 C 
ENDBRANCH  12  15
ENDBRANCH  11  13
ENDBRANCH  10  11
ENDBRANCH   1  10
TORSDOF 6
ENDMDL
MODEL       42
REMARK  Name = ZINC000681018670
REMARK                            x       y       z     vdW  Elec       q    Type
REMARK                         _______ _______ _______ _____ _____    ______ ____
ROOT
ATOM      1  N   LIG    1        0.742  -2.057   5.693  0.00  0.00    -0.390 N 
ATOM      2  C   LIG    1        1.975  -1.281   5.878  0.00  0.00    +0.310 C 
ATOM      3  H   LIG    1        0.972  -3.031   5.572  0.00  0.00    +0.420 HD
ENDROOT
BRANCH   1   4
ATOM      4  C   LIG    1       -0.117  -1.900   6.874  0.00  0.00    +0.170 C 
ATOM      5  C   LIG    1       -1.402  -2.708   6.681  0.00  0.00    +0.040 C 
ATOM      6  C   LIG    1       -2.297  -2.545   7.912  0.00  0.00    +0.030 C 
ATOM      7  C   LIG    1       -1.557  -3.052   9.151  0.00  0.00    +0.020 C 
ATOM      8  C   LIG    1       -0.272  -2.244   9.344  0.00  0.00    +0.030 C 
ATOM      9  C   LIG    1        0.623  -2.407   8.114  0.00  0.00    +0.040 C 
ENDBRANCH   1   4
BRANCH   1  10
ATOM     10  C   LIG    1        0.031  -1.570   4.503  0.00  0.00    +0.250 C 
BRANCH  10  11
ATOM     11  C   LIG    1        0.874  -1.847   3.256  0.00  0.00    +0.070 C 
BRANCH  11  13
ATOM     12  C   LIG    1        0.731  -0.503   1.223  0.00  0.00    +0.000 C 
ATOM     13  C   LIG    1        0.146  -1.348   2.036  0.00  0.00    -0.070 C 
BRANCH  12  15
ATOM     14  C   LIG    1       -0.019   1.526   0.010  0.00  0.00    +0.020 C 
ATOM     15  C   LIG    1        0.002  -0.004   0.002  0.00  0.00    +0.040 C 
ENDBRANCH  12  15
ENDBRANCH  11  13
ENDBRANCH  10  11
ENDBRANCH   1  10
TORSDOF 5
ENDMDL
MODEL       43
REMARK  Name = ZINC000681019830
REMARK                            x       y       z     vdW  Elec       q    Type
REMARK                         _______ _______ _______ _____ _____    ______ ____
ROOT
ATOM      1  N   LIG    1       -0.248  -3.772  -3.478  0.00  0.00    -0.380 N 
ATOM      2  H   LIG    1       -0.672  -3.381  -4.306  0.00  0.00    +0.420 HD
ENDROOT
BRANCH   1   3
ATOM      3  C   LIG    1       -0.224  -5.237  -3.587  0.00  0.00    +0.160 C 
ATOM      4  C   LIG    1       -1.469  -5.714  -4.337  0.00  0.00    +0.080 C 
BRANCH   3   5
ATOM      5  C   LIG    1       -0.205  -5.853  -2.186  0.00  0.00    -0.020 C 
ATOM      6  C   LIG    1        1.121  -5.519  -1.500  0.00  0.00    +0.030 C 
ATOM      7  C   LIG    1       -0.356  -7.372  -2.295  0.00  0.00    +0.070 C 
ENDBRANCH   3   5
ENDBRANCH   1   3
BRANCH   1   8
ATOM      8  C   LIG    1        1.125  -3.268  -3.345  0.00  0.00    +0.230 C 
ATOM      9  C   LIG    1        1.893  -3.533  -4.642  0.00  0.00    +0.080 C 
ENDBRANCH   1   8
BRANCH   1  10
ATOM     10  C   LIG    1       -1.029  -3.382  -2.296  0.00  0.00    +0.260 C 
BRANCH  10  11
ATOM     11  C   LIG    1       -1.214  -1.864  -2.286  0.00  0.00    +0.070 C 
BRANCH  11  13
ATOM     12  C   LIG    1       -1.555  -0.547  -0.258  0.00  0.00    +0.000 C 
ATOM     13  C   LIG    1       -2.015  -1.464  -1.074  0.00  0.00    -0.070 C 
BRANCH  12  15
ATOM     14  C   LIG    1       -0.599   1.724  -0.537  0.00  0.00    +0.030 C 
ATOM     15  C   LIG    1       -0.310   0.223  -0.615  0.00  0.00    +0.040 C 
ENDBRANCH  12  15
ENDBRANCH  11  13
ENDBRANCH  10  11
ENDBRANCH   1  10
TORSDOF 7
ENDMDL
MODEL       44
REMARK  Name = ZINC000681018669
REMARK                            x       y       z     vdW  Elec       q    Type
REMARK                         _______ _______ _______ _____ _____    ______ ____
ROOT
ATOM      1  N   LIG    1       -2.733  -3.721   1.737  0.00  0.00    -0.380 N 
ATOM      2  C   LIG    1       -3.047  -3.506   0.318  0.00  0.00    +0.310 C 
ATOM      3  H   LIG    1       -3.385  -3.204   2.308  0.00  0.00    +0.420 HD
ENDROOT
BRANCH   1   4
ATOM      4  C   LIG    1       -2.838  -5.153   2.049  0.00  0.00    +0.170 C 
ATOM      5  C   LIG    1       -2.510  -5.377   3.527  0.00  0.00    +0.040 C 
ATOM      6  C   LIG    1       -2.619  -6.868   3.853  0.00  0.00    +0.030 C 
ATOM      7  C   LIG    1       -4.043  -7.350   3.567  0.00  0.00    +0.020 C 
ATOM      8  C   LIG    1       -4.370  -7.126   2.089  0.00  0.00    +0.030 C 
ATOM      9  C   LIG    1       -4.261  -5.635   1.763  0.00  0.00    +0.040 C 
ENDBRANCH   1   4
BRANCH   1  10
ATOM     10  C   LIG    1       -1.366  -3.259   2.011  0.00  0.00    +0.250 C 
BRANCH  10  11
ATOM     11  C   LIG    1       -1.289  -1.744   1.805  0.00  0.00    +0.070 C 
BRANCH  11  13
ATOM     12  C   LIG    1        0.757  -0.563   1.192  0.00  0.00    +0.000 C 
ATOM     13  C   LIG    1        0.113  -1.270   2.087  0.00  0.00    -0.070 C 
BRANCH  12  15
ATOM     14  C   LIG    1        0.248   1.428  -0.196  0.00  0.00    +0.030 C 
ATOM     15  C   LIG    1        0.043  -0.081  -0.044  0.00  0.00    +0.040 C 
ENDBRANCH  12  15
ENDBRANCH  11  13
ENDBRANCH  10  11
ENDBRANCH   1  10
TORSDOF 5
ENDMDL
MODEL       45
REMARK  Name = ZINC000681018631
REMARK                            x       y       z     vdW  Elec       q    Type
REMARK                         _______ _______ _______ _____ _____    ______ ____
ROOT
ATOM      1  N   LIG    1        0.047  -3.752  -3.291  0.00  0.00    -0.380 N 
ATOM      2  C   LIG    1        1.489  -3.471  -3.263  0.00  0.00    +0.310 C 
ATOM      3  H   LIG    1       -0.382  -3.232  -4.041  0.00  0.00    +0.420 HD
ENDROOT
BRANCH   1   4
ATOM      4  C   LIG    1       -0.169  -5.189  -3.504  0.00  0.00    +0.170 C 
ATOM      5  C   LIG    1       -0.136  -5.915  -2.158  0.00  0.00    +0.090 C 
BRANCH   4   6
ATOM      6  C   LIG    1       -1.529  -5.407  -4.169  0.00  0.00    -0.080 C 
ATOM      7  C   LIG    1       -2.631  -4.838  -3.274  0.00  0.00    +0.050 C 
ATOM      8  C   LIG    1       -1.762  -6.905  -4.375  0.00  0.00    +0.070 C 
ATOM      9  C   LIG    1       -1.554  -4.697  -5.524  0.00  0.00    +0.060 C 
ENDBRANCH   4   6
ENDBRANCH   1   4
BRANCH   1  10
ATOM     10  C   LIG    1       -0.554  -3.351  -2.011  0.00  0.00    +0.250 C 
BRANCH  10  11
ATOM     11  C   LIG    1       -0.500  -1.828  -1.877  0.00  0.00    +0.070 C 
BRANCH  11  13
ATOM     12  C   LIG    1       -0.448  -0.651   0.261  0.00  0.00    +0.000 C 
ATOM     13  C   LIG    1       -1.116  -1.417  -0.565  0.00  0.00    -0.070 C 
BRANCH  12  15
ATOM     14  C   LIG    1        0.817   1.471   0.048  0.00  0.00    +0.030 C 
ATOM     15  C   LIG    1        0.862  -0.043  -0.168  0.00  0.00    +0.040 C 
ENDBRANCH  12  15
ENDBRANCH  11  13
ENDBRANCH  10  11
ENDBRANCH   1  10
TORSDOF 6
ENDMDL
MODEL       46
REMARK  Name = ZINC000681018628
REMARK                            x       y       z     vdW  Elec       q    Type
REMARK                         _______ _______ _______ _____ _____    ______ ____
ROOT
ATOM      1  N   LIG    1       -0.105  -3.942  -3.103  0.00  0.00    -0.380 N 
ATOM      2  C   LIG    1        1.299  -3.513  -3.075  0.00  0.00    +0.290 C 
ATOM      3  H   LIG    1       -0.601  -3.425  -3.815  0.00  0.00    +0.420 HD
ENDROOT
BRANCH   1   4
ATOM      4  C   LIG    1       -0.172  -5.378  -3.405  0.00  0.00    +0.170 C 
ATOM      5  C   LIG    1       -1.587  -5.737  -3.864  0.00  0.00    +0.080 C 
BRANCH   4   6
ATOM      6  C   LIG    1        0.175  -6.180  -2.149  0.00  0.00    -0.080 C 
ATOM      7  C   LIG    1        1.377  -5.539  -1.452  0.00  0.00    +0.050 C 
ATOM      8  C   LIG    1        0.521  -7.618  -2.542  0.00  0.00    +0.070 C 
ATOM      9  C   LIG    1       -1.023  -6.185  -1.198  0.00  0.00    +0.050 C 
ENDBRANCH   4   6
ENDBRANCH   1   4
BRANCH   1  10
ATOM     10  C   LIG    1       -0.722  -3.687  -1.794  0.00  0.00    +0.260 C 
BRANCH  10  11
ATOM     11  C   LIG    1       -0.709  -2.184  -1.508  0.00  0.00    +0.060 C 
BRANCH  11  13
ATOM     12  C   LIG    1       -0.703  -1.216   0.733  0.00  0.00    +0.000 C 
ATOM     13  C   LIG    1       -1.342  -1.923  -0.166  0.00  0.00    -0.070 C 
BRANCH  12  15
ATOM     14  C   LIG    1        0.431   0.988   0.642  0.00  0.00    +0.030 C 
ATOM     15  C   LIG    1        0.577  -0.510   0.366  0.00  0.00    +0.040 C 
ENDBRANCH  12  15
ENDBRANCH  11  13
ENDBRANCH  10  11
ENDBRANCH   1  10
TORSDOF 6
ENDMDL
MODEL       47
REMARK  Name = ZINC000681018623
REMARK                            x       y       z     vdW  Elec       q    Type
REMARK                         _______ _______ _______ _____ _____    ______ ____
ROOT
ATOM      1  N   LIG    1       -5.317  -1.690  -2.305  0.00  0.00    -0.380 N 
ATOM      2  C   LIG    1       -6.266  -1.351  -1.237  0.00  0.00    +0.310 C 
ATOM      3  H   LIG    1       -4.907  -2.593  -2.116  0.00  0.00    +0.420 HD
ENDROOT
BRANCH   1   4
ATOM      4  C   LIG    1       -6.023  -1.734  -3.593  0.00  0.00    +0.170 C 
ATOM      5  C   LIG    1       -6.059  -0.331  -4.202  0.00  0.00    +0.090 C 
BRANCH   4   6
ATOM      6  C   LIG    1       -5.292  -2.684  -4.543  0.00  0.00    -0.080 C 
ATOM      7  C   LIG    1       -3.868  -2.176  -4.777  0.00  0.00    +0.050 C 
ATOM      8  C   LIG    1       -6.038  -2.743  -5.878  0.00  0.00    +0.070 C 
ATOM      9  C   LIG    1       -5.240  -4.083  -3.926  0.00  0.00    +0.060 C 
ENDBRANCH   4   6
ENDBRANCH   1   4
BRANCH   1  10
ATOM     10  C   LIG    1       -4.258  -0.673  -2.361  0.00  0.00    +0.240 C 
BRANCH  10  11
ATOM     11  C   LIG    1       -3.423  -0.736  -1.081  0.00  0.00    +0.070 C 
BRANCH  11  13
ATOM     12  C   LIG    1       -2.223   1.188  -0.175  0.00  0.00    +0.000 C 
ATOM     13  C   LIG    1       -2.337   0.307  -1.138  0.00  0.00    -0.070 C 
BRANCH  12  15
ATOM     14  C   LIG    1       -1.761   3.623  -0.110  0.00  0.00    +0.020 C 
ATOM     15  C   LIG    1       -1.137   2.231  -0.233  0.00  0.00    +0.040 C 
ENDBRANCH  12  15
ENDBRANCH  11  13
ENDBRANCH  10  11
ENDBRANCH   1  10
TORSDOF 6
ENDMDL
MODEL       48
REMARK  Name = ZINC000681018960
REMARK                            x       y       z     vdW  Elec       q    Type
REMARK                         _______ _______ _______ _____ _____    ______ ____
ROOT
ATOM      1  N   LIG    1       -5.496  -2.059  -2.357  0.00  0.00    -0.380 N 
ATOM      2  H   LIG    1       -5.610  -3.049  -2.198  0.00  0.00    +0.420 HD
ENDROOT
BRANCH   1   3
ATOM      3  C   LIG    1       -6.290  -1.656  -3.525  0.00  0.00    +0.150 C 
ATOM      4  C   LIG    1       -5.939  -2.538  -4.749  0.00  0.00    +0.040 C 
ATOM      5  C   LIG    1       -7.207  -2.421  -5.630  0.00  0.00    +0.050 C 
ATOM      6  C   LIG    1       -8.372  -2.414  -4.618  0.00  0.00    +0.030 C 
ATOM      7  C   LIG    1       -7.788  -1.929  -3.280  0.00  0.00    +0.030 C 
ENDBRANCH   1   3
BRANCH   1   8
ATOM      8  C   LIG    1       -5.953  -1.317  -1.174  0.00  0.00    +0.240 C 
ATOM      9  C   LIG    1       -5.731   0.180  -1.394  0.00  0.00    +0.070 C 
ENDBRANCH   1   8
BRANCH   1  10
ATOM     10  C   LIG    1       -4.078  -1.763  -2.602  0.00  0.00    +0.250 C 
BRANCH  10  11
ATOM     11  C   LIG    1       -3.237  -2.295  -1.440  0.00  0.00    +0.070 C 
BRANCH  11  13
ATOM     12  C   LIG    1       -1.087  -1.332  -0.798  0.00  0.00    +0.000 C 
ATOM     13  C   LIG    1       -1.783  -1.991  -1.692  0.00  0.00    -0.070 C 
BRANCH  12  15
ATOM     14  C   LIG    1        0.604   0.478  -0.920  0.00  0.00    +0.020 C 
ATOM     15  C   LIG    1        0.367  -1.028  -1.050  0.00  0.00    +0.040 C 
ENDBRANCH  12  15
ENDBRANCH  11  13
ENDBRANCH  10  11
ENDBRANCH   1  10
TORSDOF 6
ENDMDL
MODEL       49
REMARK  Name = ZINC000681019831
REMARK                            x       y       z     vdW  Elec       q    Type
REMARK                         _______ _______ _______ _____ _____    ______ ____
ROOT
ATOM      1  N   LIG    1       -5.255  -2.077  -2.548  0.00  0.00    -0.380 N 
ATOM      2  H   LIG    1       -5.064  -3.066  -2.608  0.00  0.00    +0.420 HD
ENDROOT
BRANCH   1   3
ATOM      3  C   LIG    1       -5.993  -1.647  -3.743  0.00  0.00    +0.160 C 
ATOM      4  C   LIG    1       -5.520  -2.456  -4.952  0.00  0.00    +0.080 C 
BRANCH   3   5
ATOM      5  C   LIG    1       -5.736  -0.159  -3.993  0.00  0.00    -0.020 C 
ATOM      6  C   LIG    1       -6.358   0.662  -2.862  0.00  0.00    +0.030 C 
ATOM      7  C   LIG    1       -6.366   0.250  -5.326  0.00  0.00    +0.070 C 
ENDBRANCH   3   5
ENDBRANCH   1   3
BRANCH   1   8
ATOM      8  C   LIG    1       -6.063  -1.806  -1.351  0.00  0.00    +0.230 C 
ATOM      9  C   LIG    1       -7.309  -2.693  -1.365  0.00  0.00    +0.080 C 
ENDBRANCH   1   8
BRANCH   1  10
ATOM     10  C   LIG    1       -3.989  -1.337  -2.461  0.00  0.00    +0.250 C 
BRANCH  10  11
ATOM     11  C   LIG    1       -3.147  -1.900  -1.314  0.00  0.00    +0.070 C 
BRANCH  11  13
ATOM     12  C   LIG    1       -1.495  -0.576  -0.098  0.00  0.00    +0.000 C 
ATOM     13  C   LIG    1       -1.848  -1.141  -1.226  0.00  0.00    -0.070 C 
BRANCH  12  15
ATOM     14  C   LIG    1       -0.467   1.602   0.492  0.00  0.00    +0.020 C 
ATOM     15  C   LIG    1       -0.196   0.182  -0.009  0.00  0.00    +0.040 C 
ENDBRANCH  12  15
ENDBRANCH  11  13
ENDBRANCH  10  11
ENDBRANCH   1  10
TORSDOF 7
ENDMDL
MODEL       50
REMARK  Name = ZINC000608494475
REMARK                            x       y       z     vdW  Elec       q    Type
REMARK                         _______ _______ _______ _____ _____    ______ ____
ROOT
ATOM      1  C   LIG    1        0.742  -0.511   1.242  0.00  0.00    +0.160 C 
ATOM      2  C   LIG    1        0.840  -2.050   1.201  0.00  0.00    +0.070 C 
ATOM      3  C   LIG    1        0.631  -2.453   2.685  0.00  0.00    +0.080 C 
ATOM      4  C   LIG    1       -0.402  -1.398   3.153  0.00  0.00    +0.250 C 
ATOM      5  N   LIG    1       -0.010  -0.149   2.457  0.00  0.00    -0.390 N 
ATOM      6  H   LIG    1       -0.836   0.372   2.203  0.00  0.00    +0.420 HD
ENDROOT
BRANCH   1   8
ATOM      7  C   LIG    1       -0.019   1.526   0.010  0.00  0.00    +0.030 C 
ATOM      8  C   LIG    1        0.002  -0.004   0.002  0.00  0.00    +0.060 C 
ENDBRANCH   1   8
BRANCH   5   9
ATOM      9  C   LIG    1        0.837   0.664   3.341  0.00  0.00    +0.240 C 
BRANCH   9  10
ATOM     10  C   LIG    1        0.011   1.147   4.535  0.00  0.00    +0.040 C 
BRANCH  10  11
ATOM     11  C   LIG    1        0.893   1.994   5.455  0.00  0.00    -0.060 C 
ATOM     12  C   LIG    1        1.426   3.201   4.681  0.00  0.00    +0.020 C 
ATOM     13  C   LIG    1        2.067   1.150   5.955  0.00  0.00    +0.020 C 
BRANCH  11  14
ATOM     14  C   LIG    1        0.068   2.477   6.649  0.00  0.00    +0.030 C 
ATOM     15  C   LIG    1        0.949   3.324   7.569  0.00  0.00    +0.020 C 
ENDBRANCH  11  14
ENDBRANCH  10  11
ENDBRANCH   9  10
ENDBRANCH   5   9
TORSDOF 5
ENDMDL
MODEL       51
REMARK  Name = ZINC000608494870
REMARK                            x       y       z     vdW  Elec       q    Type
REMARK                         _______ _______ _______ _____ _____    ______ ____
ROOT
ATOM      1  N   LIG    1        1.475  -3.990  -2.532  0.00  0.00    -0.390 N 
ATOM      2  C   LIG    1        0.097  -4.505  -2.675  0.00  0.00    +0.250 C 
ATOM      3  C   LIG    1        0.237  -5.771  -3.556  0.00  0.00    +0.080 C 
ATOM      4  C   LIG    1        1.350  -5.341  -4.548  0.00  0.00    +0.080 C 
ATOM      5  C   LIG    1        2.273  -4.469  -3.676  0.00  0.00    +0.050 C 
ATOM      6  C   LIG    1        3.452  -5.303  -3.169  0.00  0.00    +0.100 C 
ATOM      7  C   LIG    1        2.785  -3.278  -4.489  0.00  0.00    +0.090 C 
ATOM      8  H   LIG    1        1.877  -4.329  -1.671  0.00  0.00    +0.420 HD
ENDROOT
BRANCH   1   9
ATOM      9  C   LIG    1        1.455  -2.521  -2.524  0.00  0.00    +0.240 C 
BRANCH   9  10
ATOM     10  C   LIG    1        0.739  -2.027  -1.265  0.00  0.00    +0.040 C 
BRANCH  10  11
ATOM     11  C   LIG    1        0.718  -0.497  -1.257  0.00  0.00    -0.060 C 
ATOM     12  C   LIG    1        2.154   0.032  -1.268  0.00  0.00    +0.020 C 
ATOM     13  C   LIG    1       -0.022   0.009  -2.496  0.00  0.00    +0.020 C 
BRANCH  11  15
ATOM     14  C   LIG    1       -0.019   1.526   0.010  0.00  0.00    +0.020 C 
ATOM     15  C   LIG    1        0.002  -0.004   0.002  0.00  0.00    +0.030 C 
ENDBRANCH  11  15
ENDBRANCH  10  11
ENDBRANCH   9  10
ENDBRANCH   1   9
TORSDOF 4
ENDMDL
MODEL       52
REMARK  Name = ZINC000608494479
REMARK                            x       y       z     vdW  Elec       q    Type
REMARK                         _______ _______ _______ _____ _____    ______ ____
ROOT
ATOM      1  C   LIG    1        0.705  -0.341   1.323  0.00  0.00    +0.160 C 
ATOM      2  C   LIG    1        0.720  -1.881   1.422  0.00  0.00    +0.070 C 
ATOM      3  C   LIG    1        2.132  -2.181   1.988  0.00  0.00    +0.080 C 
ATOM      4  C   LIG    1        2.984  -1.083   1.302  0.00  0.00    +0.250 C 
ATOM      5  N   LIG    1        2.107   0.111   1.269  0.00  0.00    -0.390 N 
ATOM      6  H   LIG    1        2.308   0.702   2.062  0.00  0.00    +0.420 HD
ENDROOT
BRANCH   1   8
ATOM      7  C   LIG    1       -1.499  -0.329   0.146  0.00  0.00    +0.060 C 
ATOM      8  C   LIG    1       -0.031   0.092   0.054  0.00  0.00    +0.040 C 
ENDBRANCH   1   8
BRANCH   5   9
ATOM      9  C   LIG    1        2.335   0.857   0.024  0.00  0.00    +0.240 C 
BRANCH   9  10
ATOM     10  C   LIG    1        3.770   1.389   0.004  0.00  0.00    +0.040 C 
BRANCH  10  11
ATOM     11  C   LIG    1        4.007   2.166  -1.292  0.00  0.00    -0.060 C 
ATOM     12  C   LIG    1        3.027   3.338  -1.371  0.00  0.00    +0.020 C 
ATOM     13  C   LIG    1        3.790   1.238  -2.490  0.00  0.00    +0.020 C 
BRANCH  11  14
ATOM     14  C   LIG    1        5.441   2.697  -1.313  0.00  0.00    +0.030 C 
ATOM     15  C   LIG    1        5.679   3.474  -2.609  0.00  0.00    +0.020 C 
ENDBRANCH  11  14
ENDBRANCH  10  11
ENDBRANCH   9  10
ENDBRANCH   5   9
TORSDOF 5
ENDMDL
MODEL       53
REMARK  Name = ZINC000608494197
REMARK                            x       y       z     vdW  Elec       q    Type
REMARK                         _______ _______ _______ _____ _____    ______ ____
ROOT
ATOM      1  N   LIG    1        1.472  -3.311  -3.174  0.00  0.00    -0.390 N 
ATOM      2  C   LIG    1        0.011  -3.296  -3.327  0.00  0.00    +0.310 C 
ATOM      3  H   LIG    1        1.735  -4.035  -2.522  0.00  0.00    +0.420 HD
ENDROOT
BRANCH   1   4
ATOM      4  C   LIG    1        1.925  -2.008  -2.668  0.00  0.00    +0.240 C 
BRANCH   4   5
ATOM      5  C   LIG    1        1.372  -1.789  -1.258  0.00  0.00    +0.040 C 
BRANCH   5   6
ATOM      6  C   LIG    1        1.843  -0.432  -0.731  0.00  0.00    -0.060 C 
ATOM      7  C   LIG    1        3.372  -0.404  -0.689  0.00  0.00    +0.020 C 
ATOM      8  C   LIG    1        1.337   0.678  -1.655  0.00  0.00    +0.020 C 
BRANCH   6  10
ATOM      9  C   LIG    1        1.761   1.144   1.207  0.00  0.00    +0.020 C 
ATOM     10  C   LIG    1        1.290  -0.213   0.679  0.00  0.00    +0.030 C 
ENDBRANCH   6  10
ENDBRANCH   5   6
ENDBRANCH   4   5
ENDBRANCH   1   4
BRANCH   1  11
ATOM     11  C   LIG    1        2.099  -3.574  -4.476  0.00  0.00    +0.260 C 
BRANCH  11  12
ATOM     12  C   LIG    1        1.851  -5.030  -4.876  0.00  0.00    -0.090 C 
ATOM     13  C   LIG    1        2.295  -5.953  -3.739  0.00  0.00    +0.040 C 
ATOM     14  C   LIG    1        2.652  -5.356  -6.138  0.00  0.00    +0.070 C 
ATOM     15  C   LIG    1        0.360  -5.238  -5.149  0.00  0.00    +0.050 C 
ENDBRANCH  11  12
ENDBRANCH   1  11
TORSDOF 6
ENDMDL
MODEL       54
REMARK  Name = ZINC000681020192
REMARK                            x       y       z     vdW  Elec       q    Type
REMARK                         _______ _______ _______ _____ _____    ______ ____
ROOT
ATOM      1  N   LIG    1        2.575  -4.162   1.470  0.00  0.00    -0.360 N 
ATOM      2  H   LIG    1        3.339  -3.592   1.801  0.00  0.00    +0.420 HD
ENDROOT
BRANCH   1   3
ATOM      3  C   LIG    1        1.457  -4.080   2.420  0.00  0.00    +0.090 C 
ATOM      4  C   LIG    1        1.700  -3.336   3.735  0.00  0.00    +0.100 C 
ATOM      5  C   LIG    1        0.824  -2.706   2.650  0.00  0.00    +0.090 C 
ENDBRANCH   1   3
BRANCH   1   6
ATOM      6  C   LIG    1        2.136  -3.677   0.154  0.00  0.00    +0.260 C 
BRANCH   6   7
ATOM      7  C   LIG    1        3.339  -3.600  -0.788  0.00  0.00    +0.070 C 
BRANCH   7   9
ATOM      8  C   LIG    1        3.449  -2.113  -2.721  0.00  0.00    +0.000 C 
ATOM      9  C   LIG    1        2.882  -3.147  -2.150  0.00  0.00    -0.070 C 
BRANCH   8  11
ATOM     10  C   LIG    1        5.781  -1.374  -3.124  0.00  0.00    +0.030 C 
ATOM     11  C   LIG    1        4.658  -1.473  -2.090  0.00  0.00    +0.040 C 
ENDBRANCH   8  11
ENDBRANCH   7   9
ENDBRANCH   6   7
ENDBRANCH   1   6
BRANCH   1  12
ATOM     12  C   LIG    1        3.018  -5.557   1.355  0.00  0.00    +0.250 C 
BRANCH  12  13
ATOM     13  C   LIG    1        3.591  -6.023   2.695  0.00  0.00    +0.020 C 
BRANCH  13  14
ATOM     14  C   LIG    1        4.053  -7.476   2.575  0.00  0.00    +0.020 C 
ATOM     15  C   LIG    1        4.625  -7.942   3.916  0.00  0.00    +0.030 C 
ENDBRANCH  13  14
ENDBRANCH  12  13
ENDBRANCH   1  12
TORSDOF 8
ENDMDL
MODEL       55
REMARK  Name = ZINC000681020394
REMARK                            x       y       z     vdW  Elec       q    Type
REMARK                         _______ _______ _______ _____ _____    ______ ____
ROOT
ATOM      1  N   LIG    1        4.479  -2.137  -3.185  0.00  0.00    -0.380 N 
ATOM      2  H   LIG    1        4.007  -1.624  -3.914  0.00  0.00    +0.420 HD
ENDROOT
BRANCH   1   3
ATOM      3  C   LIG    1        4.410  -3.575  -3.477  0.00  0.00    +0.160 C 
ATOM      4  C   LIG    1        5.236  -4.345  -2.443  0.00  0.00    +0.090 C 
ATOM      5  C   LIG    1        4.970  -3.840  -4.876  0.00  0.00    +0.090 C 
ENDBRANCH   1   3
BRANCH   1   6
ATOM      6  C   LIG    1        3.828  -1.867  -1.896  0.00  0.00    +0.240 C 
BRANCH   6   7
ATOM      7  C   LIG    1        2.330  -2.158  -2.010  0.00  0.00    +0.070 C 
BRANCH   7   9
ATOM      8  C   LIG    1        0.659  -1.138  -0.551  0.00  0.00    +0.000 C 
ATOM      9  C   LIG    1        1.676  -1.955  -0.667  0.00  0.00    -0.070 C 
BRANCH   8  11
ATOM     10  C   LIG    1       -0.009   0.556   1.132  0.00  0.00    +0.020 C 
ATOM     11  C   LIG    1        0.005  -0.935   0.791  0.00  0.00    +0.040 C 
ENDBRANCH   8  11
ENDBRANCH   7   9
ENDBRANCH   6   7
ENDBRANCH   1   6
BRANCH   1  12
ATOM     12  C   LIG    1        5.885  -1.717  -3.122  0.00  0.00    +0.240 C 
BRANCH  12  13
ATOM     13  C   LIG    1        5.956  -0.197  -2.962  0.00  0.00    -0.030 C 
ATOM     14  C   LIG    1        5.367   0.474  -4.204  0.00  0.00    +0.030 C 
ATOM     15  C   LIG    1        7.416   0.230  -2.796  0.00  0.00    +0.070 C 
ENDBRANCH  12  13
ENDBRANCH   1  12
TORSDOF 7
ENDMDL
MODEL       56
REMARK  Name = ZINC000681020395
REMARK                            x       y       z     vdW  Elec       q    Type
REMARK                         _______ _______ _______ _____ _____    ______ ____
ROOT
ATOM      1  N   LIG    1        2.967  -3.331   1.275  0.00  0.00    -0.380 N 
ATOM      2  H   LIG    1        2.262  -3.216   1.988  0.00  0.00    +0.420 HD
ENDROOT
BRANCH   1   3
ATOM      3  C   LIG    1        4.177  -2.592   1.659  0.00  0.00    +0.160 C 
ATOM      4  C   LIG    1        5.288  -2.868   0.644  0.00  0.00    +0.080 C 
ATOM      5  C   LIG    1        4.632  -3.045   3.048  0.00  0.00    +0.090 C 
ENDBRANCH   1   3
BRANCH   1   6
ATOM      6  C   LIG    1        2.461  -2.811  -0.003  0.00  0.00    +0.250 C 
BRANCH   6   7
ATOM      7  C   LIG    1        2.014  -1.359   0.178  0.00  0.00    +0.070 C 
BRANCH   7   9
ATOM      8  C   LIG    1        0.373  -0.249  -1.249  0.00  0.00    +0.000 C 
ATOM      9  C   LIG    1        1.554  -0.807  -1.146  0.00  0.00    -0.070 C 
BRANCH   8  11
ATOM     10  C   LIG    1       -0.896   1.443   0.045  0.00  0.00    +0.030 C 
ATOM     11  C   LIG    1       -0.463  -0.023  -0.016  0.00  0.00    +0.040 C 
ENDBRANCH   8  11
ENDBRANCH   7   9
ENDBRANCH   6   7
ENDBRANCH   1   6
BRANCH   1  12
ATOM     12  C   LIG    1        3.289  -4.757   1.131  0.00  0.00    +0.240 C 
BRANCH  12  13
ATOM     13  C   LIG    1        2.003  -5.548   0.886  0.00  0.00    -0.030 C 
ATOM     14  C   LIG    1        1.109  -5.463   2.124  0.00  0.00    +0.030 C 
ATOM     15  C   LIG    1        2.350  -7.011   0.606  0.00  0.00    +0.070 C 
ENDBRANCH  12  13
ENDBRANCH   1  12
TORSDOF 7
ENDMDL
MODEL       57
REMARK  Name = ZINC000608497051
REMARK                            x       y       z     vdW  Elec       q    Type
REMARK                         _______ _______ _______ _____ _____    ______ ____
ROOT
ATOM      1  N   LIG    1        1.261  -2.516   2.549  0.00  0.00    -0.390 N 
ATOM      2  C   LIG    1        0.470  -2.039   3.690  0.00  0.00    +0.300 C 
ATOM      3  H   LIG    1        2.204  -2.163   2.622  0.00  0.00    +0.420 HD
ENDROOT
BRANCH   1   4
ATOM      4  C   LIG    1        0.655  -2.037   1.299  0.00  0.00    +0.250 C 
BRANCH   4   5
ATOM      5  C   LIG    1        0.742  -0.511   1.242  0.00  0.00    -0.030 C 
ATOM      6  C   LIG    1        2.210  -0.086   1.169  0.00  0.00    +0.040 C 
BRANCH   5   8
ATOM      7  C   LIG    1       -0.019   1.526   0.010  0.00  0.00    +0.030 C 
ATOM      8  C   LIG    1        0.002  -0.004   0.002  0.00  0.00    +0.020 C 
ENDBRANCH   5   8
ENDBRANCH   4   5
ENDBRANCH   1   4
BRANCH   1   9
ATOM      9  C   LIG    1        1.286  -3.985   2.550  0.00  0.00    +0.240 C 
BRANCH   9  10
ATOM     10  C   LIG    1        2.028  -4.481   3.792  0.00  0.00    +0.040 C 
BRANCH  10  11
ATOM     11  C   LIG    1        2.054  -6.011   3.793  0.00  0.00    -0.060 C 
ATOM     12  C   LIG    1        2.772  -6.510   2.538  0.00  0.00    +0.020 C 
ATOM     13  C   LIG    1        0.621  -6.545   3.808  0.00  0.00    +0.020 C 
BRANCH  11  14
ATOM     14  C   LIG    1        2.796  -6.507   5.036  0.00  0.00    +0.030 C 
ATOM     15  C   LIG    1        2.822  -8.037   5.037  0.00  0.00    +0.020 C 
ENDBRANCH  11  14
ENDBRANCH  10  11
ENDBRANCH   9  10
ENDBRANCH   1   9
TORSDOF 7
ENDMDL
MODEL       58
REMARK  Name = ZINC000608497512
REMARK                            x       y       z     vdW  Elec       q    Type
REMARK                         _______ _______ _______ _____ _____    ______ ____
ROOT
ATOM      1  N   LIG    1        1.475  -3.990  -2.532  0.00  0.00    -0.390 N 
ATOM      2  C   LIG    1        0.098  -4.519  -2.706  0.00  0.00    +0.250 C 
ATOM      3  C   LIG    1        0.335  -5.951  -3.249  0.00  0.00    -0.010 C 
ATOM      4  C   LIG    1        1.555  -5.769  -4.182  0.00  0.00    +0.080 C 
ATOM      5  C   LIG    1       -0.883  -6.441  -4.034  0.00  0.00    +0.070 C 
ATOM      6  C   LIG    1        2.248  -4.483  -3.693  0.00  0.00    +0.170 C 
ATOM      7  C   LIG    1        3.687  -4.793  -3.276  0.00  0.00    +0.090 C 
ATOM      8  H   LIG    1        1.876  -4.337  -1.674  0.00  0.00    +0.420 HD
ENDROOT
BRANCH   1   9
ATOM      9  C   LIG    1        1.455  -2.521  -2.524  0.00  0.00    +0.250 C 
BRANCH   9  10
ATOM     10  C   LIG    1        0.739  -2.027  -1.265  0.00  0.00    +0.040 C 
BRANCH  10  11
ATOM     11  C   LIG    1        0.718  -0.497  -1.257  0.00  0.00    -0.060 C 
ATOM     12  C   LIG    1        2.154   0.032  -1.268  0.00  0.00    +0.020 C 
ATOM     13  C   LIG    1       -0.022   0.009  -2.496  0.00  0.00    +0.020 C 
BRANCH  11  15
ATOM     14  C   LIG    1       -0.019   1.526   0.010  0.00  0.00    +0.020 C 
ATOM     15  C   LIG    1        0.002  -0.004   0.002  0.00  0.00    +0.030 C 
ENDBRANCH  11  15
ENDBRANCH  10  11
ENDBRANCH   9  10
ENDBRANCH   1   9
TORSDOF 4
ENDMDL
MODEL       59
REMARK  Name = ZINC000681020193
REMARK                            x       y       z     vdW  Elec       q    Type
REMARK                         _______ _______ _______ _____ _____    ______ ____
ROOT
ATOM      1  N   LIG    1        4.700  -1.877  -3.450  0.00  0.00    -0.360 N 
ATOM      2  H   LIG    1        4.365  -2.817  -3.595  0.00  0.00    +0.420 HD
ENDROOT
BRANCH   1   3
ATOM      3  C   LIG    1        4.315  -1.038  -4.593  0.00  0.00    +0.090 C 
ATOM      4  C   LIG    1        3.818  -1.748  -5.854  0.00  0.00    +0.100 C 
ATOM      5  C   LIG    1        2.831  -0.990  -4.965  0.00  0.00    +0.090 C 
ENDBRANCH   1   3
BRANCH   1   6
ATOM      6  C   LIG    1        4.110  -1.330  -2.221  0.00  0.00    +0.260 C 
BRANCH   6   7
ATOM      7  C   LIG    1        4.395  -2.277  -1.053  0.00  0.00    +0.070 C 
BRANCH   7   9
ATOM      8  C   LIG    1        2.862  -2.580   0.823  0.00  0.00    +0.000 C 
ATOM      9  C   LIG    1        3.680  -1.785   0.179  0.00  0.00    -0.070 C 
BRANCH   8  11
ATOM     10  C   LIG    1        0.640  -2.279   1.881  0.00  0.00    +0.020 C 
ATOM     11  C   LIG    1        2.148  -2.087   2.055  0.00  0.00    +0.040 C 
ENDBRANCH   8  11
ENDBRANCH   7   9
ENDBRANCH   6   7
ENDBRANCH   1   6
BRANCH   1  12
ATOM     12  C   LIG    1        6.164  -1.891  -3.325  0.00  0.00    +0.250 C 
BRANCH  12  13
ATOM     13  C   LIG    1        6.773  -2.574  -4.552  0.00  0.00    +0.020 C 
BRANCH  13  14
ATOM     14  C   LIG    1        8.298  -2.590  -4.422  0.00  0.00    +0.020 C 
ATOM     15  C   LIG    1        8.907  -3.272  -5.648  0.00  0.00    +0.030 C 
ENDBRANCH  13  14
ENDBRANCH  12  13
ENDBRANCH   1  12
TORSDOF 8
ENDMDL
MODEL       60
REMARK  Name = ZINC000608497511
REMARK                            x       y       z     vdW  Elec       q    Type
REMARK                         _______ _______ _______ _____ _____    ______ ____
ROOT
ATOM      1  N   LIG    1        1.475  -3.990  -2.532  0.00  0.00    -0.390 N 
ATOM      2  C   LIG    1        0.097  -4.505  -2.675  0.00  0.00    +0.250 C 
ATOM      3  C   LIG    1        0.237  -5.771  -3.556  0.00  0.00    +0.000 C 
ATOM      4  C   LIG    1        1.350  -5.341  -4.548  0.00  0.00    +0.070 C 
ATOM      5  C   LIG    1       -1.069  -6.073  -4.294  0.00  0.00    +0.070 C 
ATOM      6  C   LIG    1        2.273  -4.469  -3.676  0.00  0.00    +0.160 C 
ATOM      7  C   LIG    1        2.788  -3.280  -4.490  0.00  0.00    +0.080 C 
ATOM      8  H   LIG    1        1.877  -4.329  -1.671  0.00  0.00    +0.420 HD
ENDROOT
BRANCH   1   9
ATOM      9  C   LIG    1        1.455  -2.521  -2.524  0.00  0.00    +0.250 C 
BRANCH   9  10
ATOM     10  C   LIG    1        0.739  -2.027  -1.265  0.00  0.00    +0.040 C 
BRANCH  10  11
ATOM     11  C   LIG    1        0.718  -0.497  -1.257  0.00  0.00    -0.060 C 
ATOM     12  C   LIG    1        2.154   0.032  -1.268  0.00  0.00    +0.020 C 
ATOM     13  C   LIG    1       -0.022   0.009  -2.496  0.00  0.00    +0.020 C 
BRANCH  11  15
ATOM     14  C   LIG    1       -0.019   1.526   0.010  0.00  0.00    +0.020 C 
ATOM     15  C   LIG    1        0.002  -0.004   0.002  0.00  0.00    +0.030 C 
ENDBRANCH  11  15
ENDBRANCH  10  11
ENDBRANCH   9  10
ENDBRANCH   1   9
TORSDOF 4
ENDMDL
MODEL       61
REMARK  Name = ZINC000608497513
REMARK                            x       y       z     vdW  Elec       q    Type
REMARK                         _______ _______ _______ _____ _____    ______ ____
ROOT
ATOM      1  N   LIG    1        1.475  -3.990  -2.532  0.00  0.00    -0.390 N 
ATOM      2  C   LIG    1        0.097  -4.505  -2.675  0.00  0.00    +0.260 C 
ATOM      3  C   LIG    1       -0.071  -4.772  -4.191  0.00  0.00    -0.010 C 
ATOM      4  C   LIG    1        1.337  -5.299  -4.574  0.00  0.00    +0.070 C 
ATOM      5  C   LIG    1       -1.142  -5.835  -4.446  0.00  0.00    +0.070 C 
ATOM      6  C   LIG    1        2.273  -4.469  -3.676  0.00  0.00    +0.160 C 
ATOM      7  C   LIG    1        2.829  -3.280  -4.462  0.00  0.00    +0.080 C 
ATOM      8  H   LIG    1        1.877  -4.329  -1.671  0.00  0.00    +0.420 HD
ENDROOT
BRANCH   1   9
ATOM      9  C   LIG    1        1.455  -2.521  -2.524  0.00  0.00    +0.250 C 
BRANCH   9  10
ATOM     10  C   LIG    1        0.739  -2.027  -1.265  0.00  0.00    +0.040 C 
BRANCH  10  11
ATOM     11  C   LIG    1        0.718  -0.497  -1.257  0.00  0.00    -0.060 C 
ATOM     12  C   LIG    1        2.154   0.032  -1.268  0.00  0.00    +0.020 C 
ATOM     13  C   LIG    1       -0.022   0.009  -2.496  0.00  0.00    +0.020 C 
BRANCH  11  15
ATOM     14  C   LIG    1       -0.019   1.526   0.010  0.00  0.00    +0.020 C 
ATOM     15  C   LIG    1        0.002  -0.004   0.002  0.00  0.00    +0.030 C 
ENDBRANCH  11  15
ENDBRANCH  10  11
ENDBRANCH   9  10
ENDBRANCH   1   9
TORSDOF 4
ENDMDL
MODEL       62
REMARK  Name = ZINC000608497509
REMARK                            x       y       z     vdW  Elec       q    Type
REMARK                         _______ _______ _______ _____ _____    ______ ____
ROOT
ATOM      1  N   LIG    1        1.475  -3.990  -2.532  0.00  0.00    -0.390 N 
ATOM      2  C   LIG    1        0.101  -4.504  -2.674  0.00  0.00    +0.250 C 
ATOM      3  C   LIG    1        0.064  -5.362  -3.957  0.00  0.00    +0.000 C 
ATOM      4  C   LIG    1        1.552  -5.750  -4.160  0.00  0.00    +0.080 C 
ATOM      5  C   LIG    1       -0.801  -6.607  -3.749  0.00  0.00    +0.070 C 
ATOM      6  C   LIG    1        2.275  -4.470  -3.679  0.00  0.00    +0.160 C 
ATOM      7  C   LIG    1        3.700  -4.800  -3.230  0.00  0.00    +0.090 C 
ATOM      8  H   LIG    1        1.877  -4.329  -1.671  0.00  0.00    +0.420 HD
ENDROOT
BRANCH   1   9
ATOM      9  C   LIG    1        1.455  -2.521  -2.524  0.00  0.00    +0.240 C 
BRANCH   9  10
ATOM     10  C   LIG    1        0.739  -2.027  -1.265  0.00  0.00    +0.040 C 
BRANCH  10  11
ATOM     11  C   LIG    1        0.718  -0.497  -1.257  0.00  0.00    -0.060 C 
ATOM     12  C   LIG    1        2.154   0.032  -1.268  0.00  0.00    +0.020 C 
ATOM     13  C   LIG    1       -0.022   0.009  -2.496  0.00  0.00    +0.020 C 
BRANCH  11  15
ATOM     14  C   LIG    1       -0.019   1.526   0.010  0.00  0.00    +0.020 C 
ATOM     15  C   LIG    1        0.002  -0.004   0.002  0.00  0.00    +0.030 C 
ENDBRANCH  11  15
ENDBRANCH  10  11
ENDBRANCH   9  10
ENDBRANCH   1   9
TORSDOF 4
ENDMDL
MODEL       63
REMARK  Name = ZINC000608497049
REMARK                            x       y       z     vdW  Elec       q    Type
REMARK                         _______ _______ _______ _____ _____    ______ ____
ROOT
ATOM      1  N   LIG    1        1.565  -2.504   2.340  0.00  0.00    -0.390 N 
ATOM      2  C   LIG    1        0.707  -2.353   3.523  0.00  0.00    +0.310 C 
ATOM      3  H   LIG    1        2.421  -1.988   2.478  0.00  0.00    +0.420 HD
ENDROOT
BRANCH   1   4
ATOM      4  C   LIG    1        0.865  -1.984   1.158  0.00  0.00    +0.250 C 
BRANCH   4   5
ATOM      5  C   LIG    1        0.667  -0.474   1.305  0.00  0.00    -0.030 C 
ATOM      6  C   LIG    1       -0.177   0.046   0.140  0.00  0.00    +0.070 C 
BRANCH   5   8
ATOM      7  C   LIG    1        1.842   1.715   1.569  0.00  0.00    +0.040 C 
ATOM      8  C   LIG    1        2.030   0.222   1.297  0.00  0.00    +0.000 C 
ENDBRANCH   5   8
ENDBRANCH   4   5
ENDBRANCH   1   4
BRANCH   1   9
ATOM      9  C   LIG    1        1.876  -3.926   2.139  0.00  0.00    +0.240 C 
BRANCH   9  10
ATOM     10  C   LIG    1        2.713  -4.436   3.314  0.00  0.00    +0.040 C 
BRANCH  10  11
ATOM     11  C   LIG    1        3.038  -5.916   3.105  0.00  0.00    -0.060 C 
ATOM     12  C   LIG    1        3.826  -6.086   1.805  0.00  0.00    +0.020 C 
ATOM     13  C   LIG    1        1.736  -6.716   3.020  0.00  0.00    +0.020 C 
BRANCH  11  14
ATOM     14  C   LIG    1        3.874  -6.426   4.279  0.00  0.00    +0.030 C 
ATOM     15  C   LIG    1        4.199  -7.906   4.070  0.00  0.00    +0.020 C 
ENDBRANCH  11  14
ENDBRANCH  10  11
ENDBRANCH   9  10
ENDBRANCH   1   9
TORSDOF 7
ENDMDL
MODEL       64
REMARK  Name = ZINC000608497293
REMARK                            x       y       z     vdW  Elec       q    Type
REMARK                         _______ _______ _______ _____ _____    ______ ____
ROOT
ATOM      1  N   LIG    1        0.725  -0.481   1.069  0.00  0.00    -0.380 N 
ATOM      2  H   LIG    1        0.235  -0.126   0.262  0.00  0.00    +0.420 HD
ENDROOT
BRANCH   1   4
ATOM      3  C   LIG    1       -0.730  -2.446   0.916  0.00  0.00    +0.080 C 
ATOM      4  C   LIG    1        0.713  -1.950   1.041  0.00  0.00    +0.250 C 
ENDBRANCH   1   4
BRANCH   1   5
ATOM      5  C   LIG    1        2.114  -0.003   1.049  0.00  0.00    +0.280 C 
BRANCH   5   6
ATOM      6  C   LIG    1        2.766  -0.388  -0.280  0.00  0.00    -0.090 C 
ATOM      7  C   LIG    1        3.212   0.747  -1.204  0.00  0.00    +0.050 C 
ATOM      8  C   LIG    1        4.255  -0.081  -0.452  0.00  0.00    +0.070 C 
ENDBRANCH   5   6
ENDBRANCH   1   5
BRANCH   1   9
ATOM      9  C   LIG    1        0.062  -0.009   2.292  0.00  0.00    +0.250 C 
BRANCH   9  10
ATOM     10  C   LIG    1       -0.054   1.516   2.253  0.00  0.00    +0.040 C 
BRANCH  10  11
ATOM     11  C   LIG    1       -0.862   1.997   3.460  0.00  0.00    -0.060 C 
ATOM     12  C   LIG    1       -0.155   1.573   4.749  0.00  0.00    +0.020 C 
ATOM     13  C   LIG    1       -2.260   1.378   3.417  0.00  0.00    +0.020 C 
BRANCH  11  14
ATOM     14  C   LIG    1       -0.978   3.522   3.420  0.00  0.00    +0.030 C 
ATOM     15  C   LIG    1       -1.786   4.003   4.627  0.00  0.00    +0.020 C 
ENDBRANCH  11  14
ENDBRANCH  10  11
ENDBRANCH   9  10
ENDBRANCH   1   9
TORSDOF 7
ENDMDL
MODEL       65
REMARK  Name = ZINC000681024108
REMARK                            x       y       z     vdW  Elec       q    Type
REMARK                         _______ _______ _______ _____ _____    ______ ____
ROOT
ATOM      1  N   LIG    1        4.222  -2.229  -3.488  0.00  0.00    -0.380 N 
ATOM      2  H   LIG    1        3.699  -3.055  -3.737  0.00  0.00    +0.420 HD
ENDROOT
BRANCH   1   3
ATOM      3  C   LIG    1        5.607  -2.604  -3.175  0.00  0.00    +0.150 C 
ATOM      4  C   LIG    1        5.722  -3.855  -2.289  0.00  0.00    +0.050 C 
ATOM      5  C   LIG    1        6.918  -4.269  -3.164  0.00  0.00    +0.060 C 
ATOM      6  C   LIG    1        6.290  -3.422  -4.284  0.00  0.00    +0.060 C 
ENDBRANCH   1   3
BRANCH   1   7
ATOM      7  C   LIG    1        4.212  -1.286  -4.614  0.00  0.00    +0.160 C 
ATOM      8  C   LIG    1        4.715  -1.991  -5.875  0.00  0.00    +0.080 C 
ATOM      9  C   LIG    1        5.125  -0.100  -4.294  0.00  0.00    +0.080 C 
ENDBRANCH   1   7
BRANCH   1  10
ATOM     10  C   LIG    1        3.608  -1.596  -2.313  0.00  0.00    +0.250 C 
BRANCH  10  11
ATOM     11  C   LIG    1        2.143  -1.275  -2.614  0.00  0.00    +0.070 C 
BRANCH  11  13
ATOM     12  C   LIG    1        0.871   0.417  -1.398  0.00  0.00    +0.000 C 
ATOM     13  C   LIG    1        1.480  -0.743  -1.370  0.00  0.00    -0.070 C 
BRANCH  12  15
ATOM     14  C   LIG    1        0.756   2.343   0.160  0.00  0.00    +0.020 C 
ATOM     15  C   LIG    1        0.207   0.950  -0.154  0.00  0.00    +0.040 C 
ENDBRANCH  12  15
ENDBRANCH  11  13
ENDBRANCH  10  11
ENDBRANCH   1  10
TORSDOF 6
ENDMDL
MODEL       66
REMARK  Name = ZINC000681024109
REMARK                            x       y       z     vdW  Elec       q    Type
REMARK                         _______ _______ _______ _____ _____    ______ ____
ROOT
ATOM      1  N   LIG    1        3.087  -3.255   1.516  0.00  0.00    -0.380 N 
ATOM      2  H   LIG    1        3.653  -2.544   1.955  0.00  0.00    +0.420 HD
ENDROOT
BRANCH   1   3
ATOM      3  C   LIG    1        3.870  -4.491   1.386  0.00  0.00    +0.150 C 
ATOM      4  C   LIG    1        5.318  -4.258   0.925  0.00  0.00    +0.050 C 
ATOM      5  C   LIG    1        5.730  -5.347   1.931  0.00  0.00    +0.060 C 
ATOM      6  C   LIG    1        4.457  -4.992   2.716  0.00  0.00    +0.060 C 
ENDBRANCH   1   3
BRANCH   1   7
ATOM      7  C   LIG    1        1.898  -3.512   2.338  0.00  0.00    +0.150 C 
ATOM      8  C   LIG    1        2.327  -3.817   3.775  0.00  0.00    +0.080 C 
ATOM      9  C   LIG    1        1.134  -4.710   1.770  0.00  0.00    +0.080 C 
ENDBRANCH   1   7
BRANCH   1  10
ATOM     10  C   LIG    1        2.672  -2.796   0.184  0.00  0.00    +0.250 C 
BRANCH  10  11
ATOM     11  C   LIG    1        1.951  -1.452   0.309  0.00  0.00    +0.070 C 
BRANCH  11  13
ATOM     12  C   LIG    1        0.420  -0.566  -1.374  0.00  0.00    +0.000 C 
ATOM     13  C   LIG    1        1.644  -0.917  -1.066  0.00  0.00    -0.070 C 
BRANCH  12  15
ATOM     14  C   LIG    1       -1.337   0.827  -0.315  0.00  0.00    +0.030 C 
ATOM     15  C   LIG    1       -0.646  -0.538  -0.309  0.00  0.00    +0.040 C 
ENDBRANCH  12  15
ENDBRANCH  11  13
ENDBRANCH  10  11
ENDBRANCH   1  10
TORSDOF 6
ENDMDL
MODEL       67
REMARK  Name = ZINC000608500553
REMARK                            x       y       z     vdW  Elec       q    Type
REMARK                         _______ _______ _______ _____ _____    ______ ____
ROOT
ATOM      1  N   LIG    1       -1.443  -2.003  -0.007  0.00  0.00    -0.360 N 
ATOM      2  H   LIG    1       -1.171  -2.412  -0.888  0.00  0.00    +0.420 HD
ENDROOT
BRANCH   1   3
ATOM      3  C   LIG    1       -1.484  -0.541  -0.138  0.00  0.00    +0.090 C 
ATOM      4  C   LIG    1       -0.828   0.077  -1.374  0.00  0.00    +0.100 C 
ATOM      5  C   LIG    1       -2.353   0.045  -1.252  0.00  0.00    +0.090 C 
ENDBRANCH   1   3
BRANCH   1   6
ATOM      6  C   LIG    1       -0.467  -2.375   1.027  0.00  0.00    +0.250 C 
BRANCH   6   8
ATOM      7  C   LIG    1        1.952  -2.357   1.649  0.00  0.00    +0.060 C 
ATOM      8  C   LIG    1        0.936  -1.970   0.573  0.00  0.00    +0.020 C 
ENDBRANCH   6   8
ENDBRANCH   1   6
BRANCH   1   9
ATOM      9  C   LIG    1       -2.772  -2.499   0.374  0.00  0.00    +0.250 C 
BRANCH   9  10
ATOM     10  C   LIG    1       -2.768  -4.029   0.366  0.00  0.00    +0.040 C 
BRANCH  10  11
ATOM     11  C   LIG    1       -4.184  -4.544   0.630  0.00  0.00    -0.060 C 
ATOM     12  C   LIG    1       -5.126  -4.030  -0.460  0.00  0.00    +0.020 C 
ATOM     13  C   LIG    1       -4.662  -4.043   1.995  0.00  0.00    +0.020 C 
BRANCH  11  14
ATOM     14  C   LIG    1       -4.180  -6.074   0.622  0.00  0.00    +0.030 C 
ATOM     15  C   LIG    1       -5.596  -6.589   0.887  0.00  0.00    +0.020 C 
ENDBRANCH  11  14
ENDBRANCH  10  11
ENDBRANCH   9  10
ENDBRANCH   1   9
TORSDOF 7
ENDMDL
MODEL       68
REMARK  Name = ZINC000165196001
REMARK                            x       y       z     vdW  Elec       q    Type
REMARK                         _______ _______ _______ _____ _____    ______ ____
ROOT
ATOM      1  N   LIG    1       -1.544  -2.021   0.081  0.00  0.00    -0.380 N 
ATOM      2  H   LIG    1       -0.892  -2.331  -0.625  0.00  0.00    +0.420 HD
ENDROOT
BRANCH   1   3
ATOM      3  C   LIG    1       -2.887  -2.525  -0.237  0.00  0.00    +0.160 C 
ATOM      4  C   LIG    1       -3.844  -2.183   0.906  0.00  0.00    +0.090 C 
BRANCH   3   5
ATOM      5  C   LIG    1       -2.832  -4.043  -0.420  0.00  0.00    +0.050 C 
ATOM      6  C   LIG    1       -1.942  -4.380  -1.617  0.00  0.00    +0.020 C 
ENDBRANCH   3   5
ENDBRANCH   1   3
BRANCH   1   7
ATOM      7  C   LIG    1       -1.567  -0.553   0.116  0.00  0.00    +0.240 C 
BRANCH   7   9
ATOM      8  C   LIG    1       -1.967   1.511  -1.234  0.00  0.00    +0.060 C 
ATOM      9  C   LIG    1       -1.857  -0.014  -1.286  0.00  0.00    +0.020 C 
ENDBRANCH   7   9
ENDBRANCH   1   7
BRANCH   1  10
ATOM     10  C   LIG    1       -1.126  -2.536   1.392  0.00  0.00    +0.240 C 
BRANCH  10  11
ATOM     11  C   LIG    1        0.327  -2.137   1.657  0.00  0.00    +0.030 C 
BRANCH  11  12
ATOM     12  C   LIG    1        0.804  -2.781   2.960  0.00  0.00    -0.010 C 
ATOM     13  C   LIG    1        0.006  -2.209   4.134  0.00  0.00    +0.020 C 
ATOM     14  C   LIG    1        2.291  -2.486   3.161  0.00  0.00    +0.040 C 
ENDBRANCH  11  12
ENDBRANCH  10  11
ENDBRANCH   1  10
TORSDOF 7
ENDMDL
MODEL       69
REMARK  Name = ZINC000608501656
REMARK                            x       y       z     vdW  Elec       q    Type
REMARK                         _______ _______ _______ _____ _____    ______ ____
ROOT
ATOM      1  N   LIG    1       -1.445  -0.620   0.017  0.00  0.00    -0.380 N 
ATOM      2  H   LIG    1       -2.025  -0.168   0.708  0.00  0.00    +0.420 HD
ENDROOT
BRANCH   1   3
ATOM      3  C   LIG    1       -1.450  -2.071   0.246  0.00  0.00    +0.150 C 
ATOM      4  C   LIG    1       -1.457  -2.459   1.734  0.00  0.00    +0.050 C 
ATOM      5  C   LIG    1       -2.447  -3.575   1.358  0.00  0.00    +0.060 C 
ATOM      6  C   LIG    1       -2.849  -2.704   0.155  0.00  0.00    +0.050 C 
ENDBRANCH   1   3
BRANCH   1   8
ATOM      7  C   LIG    1        0.428  -0.290   1.560  0.00  0.00    +0.070 C 
ATOM      8  C   LIG    1       -0.070  -0.112   0.125  0.00  0.00    +0.250 C 
ENDBRANCH   1   8
BRANCH   1   9
ATOM      9  C   LIG    1       -1.968  -0.335  -1.325  0.00  0.00    +0.240 C 
BRANCH   9  10
ATOM     10  C   LIG    1       -2.097   1.179  -1.512  0.00  0.00    +0.040 C 
BRANCH  10  11
ATOM     11  C   LIG    1       -2.643   1.476  -2.909  0.00  0.00    -0.060 C 
ATOM     12  C   LIG    1       -4.019   0.824  -3.068  0.00  0.00    +0.020 C 
ATOM     13  C   LIG    1       -1.687   0.912  -3.962  0.00  0.00    +0.020 C 
BRANCH  11  14
ATOM     14  C   LIG    1       -2.772   2.989  -3.096  0.00  0.00    +0.030 C 
ATOM     15  C   LIG    1       -3.318   3.286  -4.494  0.00  0.00    +0.020 C 
ENDBRANCH  11  14
ENDBRANCH  10  11
ENDBRANCH   9  10
ENDBRANCH   1   9
TORSDOF 6
ENDMDL
MODEL       70
REMARK  Name = ZINC000608510835
REMARK                            x       y       z     vdW  Elec       q    Type
REMARK                         _______ _______ _______ _____ _____    ______ ____
ROOT
ATOM      1  C   LIG    1        0.773  -2.098  -1.213  0.00  0.00    -0.080 C 
ATOM      2  C   LIG    1        1.541  -2.744  -0.056  0.00  0.00    +0.050 C 
ATOM      3  C   LIG    1        3.007  -2.306  -0.121  0.00  0.00    +0.050 C 
ATOM      4  C   LIG    1        3.586  -2.686  -1.486  0.00  0.00    +0.250 C 
ATOM      5  N   LIG    1        2.826  -2.017  -2.548  0.00  0.00    -0.390 N 
ATOM      6  H   LIG    1        2.845  -1.020  -2.396  0.00  0.00    +0.420 HD
ATOM      7  C   LIG    1       -0.676  -2.590  -1.203  0.00  0.00    +0.070 C 
ATOM      8  C   LIG    1        1.435  -2.486  -2.537  0.00  0.00    +0.260 C 
ENDROOT
BRANCH   1   9
ATOM      9  C   LIG    1        0.797  -0.576  -1.056  0.00  0.00    +0.010 C 
BRANCH   9  11
ATOM     10  C   LIG    1        0.159   1.332   0.424  0.00  0.00    +0.010 C 
ATOM     11  C   LIG    1        0.135  -0.189   0.268  0.00  0.00    +0.010 C 
ENDBRANCH   9  11
ENDBRANCH   1   9
BRANCH   5  12
ATOM     12  C   LIG    1        3.433  -2.324  -3.850  0.00  0.00    +0.250 C 
BRANCH  12  13
ATOM     13  C   LIG    1        4.826  -1.696  -3.925  0.00  0.00    -0.030 C 
ATOM     14  C   LIG    1        4.700  -0.171  -3.896  0.00  0.00    +0.030 C 
ATOM     15  C   LIG    1        5.511  -2.127  -5.223  0.00  0.00    +0.070 C 
ENDBRANCH  12  13
ENDBRANCH   5  12
TORSDOF 4
ENDMDL
MODEL       71
REMARK  Name = ZINC000608508095
REMARK                            x       y       z     vdW  Elec       q    Type
REMARK                         _______ _______ _______ _____ _____    ______ ____
ROOT
ATOM      1  C   LIG    1       -1.433  -0.534   0.013  0.00  0.00    -0.080 C 
ATOM      2  C   LIG    1       -2.149  -0.045   1.275  0.00  0.00    +0.050 C 
ATOM      3  C   LIG    1       -1.445  -0.623   2.506  0.00  0.00    +0.050 C 
ATOM      4  C   LIG    1       -1.425  -2.150   2.405  0.00  0.00    +0.250 C 
ATOM      5  N   LIG    1       -0.704  -2.554   1.192  0.00  0.00    -0.380 N 
ATOM      6  H   LIG    1        0.227  -2.166   1.210  0.00  0.00    +0.420 HD
ATOM      7  C   LIG    1       -2.175  -0.025  -1.225  0.00  0.00    +0.070 C 
ATOM      8  C   LIG    1       -1.413  -2.064   0.004  0.00  0.00    +0.260 C 
ENDROOT
BRANCH   1  10
ATOM      9  C   LIG    1       -0.019   1.526   0.010  0.00  0.00    +0.040 C 
ATOM     10  C   LIG    1        0.002  -0.004   0.002  0.00  0.00    +0.010 C 
ENDBRANCH   1  10
BRANCH   5  11
ATOM     11  C   LIG    1       -0.621  -4.020   1.139  0.00  0.00    +0.250 C 
BRANCH  11  12
ATOM     12  C   LIG    1        0.232  -4.525   2.305  0.00  0.00    +0.030 C 
BRANCH  12  13
ATOM     13  C   LIG    1        0.318  -6.051   2.250  0.00  0.00    -0.010 C 
ATOM     14  C   LIG    1        1.065  -6.565   3.482  0.00  0.00    +0.040 C 
ATOM     15  C   LIG    1        1.069  -6.474   0.986  0.00  0.00    +0.020 C 
ENDBRANCH  12  13
ENDBRANCH  11  12
ENDBRANCH   5  11
TORSDOF 4
ENDMDL
MODEL       72
REMARK  Name = ZINC000608510836
REMARK                            x       y       z     vdW  Elec       q    Type
REMARK                         _______ _______ _______ _____ _____    ______ ____
ROOT
ATOM      1  C   LIG    1        0.654  -2.035  -1.305  0.00  0.00    -0.080 C 
ATOM      2  C   LIG    1       -0.784  -2.539  -1.459  0.00  0.00    +0.050 C 
ATOM      3  C   LIG    1       -0.769  -4.066  -1.578  0.00  0.00    +0.050 C 
ATOM      4  C   LIG    1        0.116  -4.471  -2.759  0.00  0.00    +0.250 C 
ATOM      5  N   LIG    1        1.483  -3.983  -2.540  0.00  0.00    -0.380 N 
ATOM      6  H   LIG    1        1.833  -4.345  -1.666  0.00  0.00    +0.420 HD
ATOM      7  C   LIG    1        1.253  -2.583  -0.009  0.00  0.00    +0.040 C 
ATOM      8  C   LIG    1        1.487  -2.516  -2.496  0.00  0.00    +0.260 C 
ENDROOT
BRANCH   1   9
ATOM      9  C   LIG    1        0.657  -0.506  -1.263  0.00  0.00    +0.030 C 
BRANCH   9  11
ATOM     10  C   LIG    1       -0.172   1.503  -0.031  0.00  0.00    +0.020 C 
ATOM     11  C   LIG    1       -0.175  -0.026  -0.073  0.00  0.00    +0.010 C 
ENDBRANCH   9  11
ENDBRANCH   1   9
BRANCH   5  12
ATOM     12  C   LIG    1        2.346  -4.439  -3.638  0.00  0.00    +0.250 C 
BRANCH  12  13
ATOM     13  C   LIG    1        2.473  -5.963  -3.587  0.00  0.00    -0.030 C 
ATOM     14  C   LIG    1        3.208  -6.371  -2.309  0.00  0.00    +0.030 C 
ATOM     15  C   LIG    1        3.259  -6.450  -4.806  0.00  0.00    +0.070 C 
ENDBRANCH  12  13
ENDBRANCH   5  12
TORSDOF 4
ENDMDL
MODEL       73
REMARK  Name = ZINC000608508553
REMARK                            x       y       z     vdW  Elec       q    Type
REMARK                         _______ _______ _______ _____ _____    ______ ____
ROOT
ATOM      1  N   LIG    1        1.475  -3.990  -2.532  0.00  0.00    -0.390 N 
ATOM      2  C   LIG    1        0.098  -4.519  -2.706  0.00  0.00    +0.250 C 
ATOM      3  C   LIG    1        0.335  -5.951  -3.249  0.00  0.00    +0.080 C 
ATOM      4  C   LIG    1        1.555  -5.769  -4.182  0.00  0.00    -0.080 C 
ATOM      5  C   LIG    1        1.094  -5.609  -5.632  0.00  0.00    +0.060 C 
ATOM      6  C   LIG    1        2.503  -6.963  -4.055  0.00  0.00    +0.060 C 
ATOM      7  C   LIG    1        2.248  -4.483  -3.693  0.00  0.00    +0.250 C 
ATOM      8  H   LIG    1        1.876  -4.337  -1.674  0.00  0.00    +0.430 HD
ENDROOT
BRANCH   1   9
ATOM      9  C   LIG    1        1.455  -2.521  -2.524  0.00  0.00    +0.250 C 
BRANCH   9  10
ATOM     10  C   LIG    1        0.739  -2.027  -1.265  0.00  0.00    +0.040 C 
BRANCH  10  11
ATOM     11  C   LIG    1        0.718  -0.497  -1.257  0.00  0.00    -0.060 C 
ATOM     12  C   LIG    1        2.154   0.032  -1.268  0.00  0.00    +0.020 C 
ATOM     13  C   LIG    1       -0.022   0.009  -2.496  0.00  0.00    +0.020 C 
BRANCH  11  15
ATOM     14  C   LIG    1       -0.019   1.526   0.010  0.00  0.00    +0.020 C 
ATOM     15  C   LIG    1        0.002  -0.004   0.002  0.00  0.00    +0.030 C 
ENDBRANCH  11  15
ENDBRANCH  10  11
ENDBRANCH   9  10
ENDBRANCH   1   9
TORSDOF 4
ENDMDL
MODEL       74
REMARK  Name = ZINC000608508096
REMARK                            x       y       z     vdW  Elec       q    Type
REMARK                         _______ _______ _______ _____ _____    ______ ____
ROOT
ATOM      1  C   LIG    1       -1.433  -0.534   0.013  0.00  0.00    -0.080 C 
ATOM      2  C   LIG    1       -2.173  -0.031  -1.230  0.00  0.00    +0.050 C 
ATOM      3  C   LIG    1       -3.583  -0.630  -1.250  0.00  0.00    +0.050 C 
ATOM      4  C   LIG    1       -3.483  -2.156  -1.212  0.00  0.00    +0.250 C 
ATOM      5  N   LIG    1       -2.790  -2.575   0.012  0.00  0.00    -0.380 N 
ATOM      6  H   LIG    1       -3.278  -2.209   0.816  0.00  0.00    +0.420 HD
ATOM      7  C   LIG    1       -2.151  -0.039   1.270  0.00  0.00    +0.040 C 
ATOM      8  C   LIG    1       -1.413  -2.064   0.004  0.00  0.00    +0.260 C 
ENDROOT
BRANCH   1  10
ATOM      9  C   LIG    1       -0.019   1.526   0.010  0.00  0.00    +0.030 C 
ATOM     10  C   LIG    1        0.002  -0.004   0.002  0.00  0.00    +0.030 C 
ENDBRANCH   1  10
BRANCH   5  11
ATOM     11  C   LIG    1       -2.764  -4.042   0.082  0.00  0.00    +0.250 C 
BRANCH  11  12
ATOM     12  C   LIG    1       -4.192  -4.571   0.225  0.00  0.00    +0.030 C 
BRANCH  12  13
ATOM     13  C   LIG    1       -4.165  -6.099   0.297  0.00  0.00    -0.010 C 
ATOM     14  C   LIG    1       -5.599  -6.634   0.314  0.00  0.00    +0.040 C 
ATOM     15  C   LIG    1       -3.443  -6.536   1.573  0.00  0.00    +0.020 C 
ENDBRANCH  12  13
ENDBRANCH  11  12
ENDBRANCH   5  11
TORSDOF 4
ENDMDL
MODEL       75
REMARK  Name = ZINC000608511188
REMARK                            x       y       z     vdW  Elec       q    Type
REMARK                         _______ _______ _______ _____ _____    ______ ____
ROOT
ATOM      1  C   LIG    1       -0.019   1.526   0.010  0.00  0.00    +0.070 C 
ATOM      2  C   LIG    1        0.002  -0.004   0.002  0.00  0.00    +0.170 C 
ATOM      3  C   LIG    1       -1.434  -0.533   0.011  0.00  0.00    +0.060 C 
ATOM      4  C   LIG    1       -2.146  -0.038   1.273  0.00  0.00    +0.030 C 
ATOM      5  C   LIG    1       -1.354  -0.487   2.504  0.00  0.00    -0.020 C 
ATOM      6  C   LIG    1        0.079   0.040   2.403  0.00  0.00    +0.240 C 
ATOM      7  C   LIG    1       -2.015   0.068   3.768  0.00  0.00    +0.070 C 
ATOM      8  N   LIG    1        0.713  -0.490   1.191  0.00  0.00    -0.380 N 
ATOM      9  H   LIG    1        0.684  -1.498   1.210  0.00  0.00    +0.420 HD
ENDROOT
BRANCH   8  10
ATOM     10  C   LIG    1        2.112  -0.043   1.137  0.00  0.00    +0.240 C 
BRANCH  10  11
ATOM     11  C   LIG    1        2.889  -0.657   2.303  0.00  0.00    +0.040 C 
BRANCH  11  12
ATOM     12  C   LIG    1        4.345  -0.191   2.246  0.00  0.00    -0.060 C 
ATOM     13  C   LIG    1        4.973  -0.638   0.924  0.00  0.00    +0.030 C 
ATOM     14  C   LIG    1        5.122  -0.805   3.412  0.00  0.00    +0.040 C 
ATOM     15  C   LIG    1        4.397   1.335   2.346  0.00  0.00    +0.030 C 
ENDBRANCH  11  12
ENDBRANCH  10  11
ENDBRANCH   8  10
TORSDOF 3
ENDMDL
MODEL       76
REMARK  Name = ZINC000608511189
REMARK                            x       y       z     vdW  Elec       q    Type
REMARK                         _______ _______ _______ _____ _____    ______ ____
ROOT
ATOM      1  C   LIG    1       -0.019   1.526   0.010  0.00  0.00    +0.070 C 
ATOM      2  C   LIG    1        0.002  -0.004   0.002  0.00  0.00    -0.020 C 
ATOM      3  C   LIG    1        0.721  -0.499  -1.257  0.00  0.00    +0.040 C 
ATOM      4  C   LIG    1        0.805  -2.027  -1.217  0.00  0.00    +0.060 C 
ATOM      5  C   LIG    1        1.518  -2.460   0.066  0.00  0.00    +0.160 C 
ATOM      6  N   LIG    1        0.768  -1.979   1.233  0.00  0.00    -0.380 N 
ATOM      7  H   LIG    1       -0.177  -2.330   1.192  0.00  0.00    +0.420 HD
ATOM      8  C   LIG    1        1.604  -3.987   0.111  0.00  0.00    +0.080 C 
ATOM      9  C   LIG    1        0.744  -0.512   1.240  0.00  0.00    +0.250 C 
ENDROOT
BRANCH   6  10
ATOM     10  C   LIG    1        1.415  -2.462   2.461  0.00  0.00    +0.250 C 
BRANCH  10  11
ATOM     11  C   LIG    1        0.567  -2.067   3.672  0.00  0.00    +0.040 C 
BRANCH  11  12
ATOM     12  C   LIG    1        1.240  -2.570   4.951  0.00  0.00    -0.060 C 
ATOM     13  C   LIG    1        1.371  -4.093   4.894  0.00  0.00    +0.030 C 
ATOM     14  C   LIG    1        0.392  -2.175   6.162  0.00  0.00    +0.040 C 
ATOM     15  C   LIG    1        2.630  -1.943   5.076  0.00  0.00    +0.030 C 
ENDBRANCH  11  12
ENDBRANCH  10  11
ENDBRANCH   6  10
TORSDOF 3
ENDMDL
MODEL       77
REMARK  Name = ZINC000608511190
REMARK                            x       y       z     vdW  Elec       q    Type
REMARK                         _______ _______ _______ _____ _____    ______ ____
ROOT
ATOM      1  C   LIG    1       -0.019   1.526   0.010  0.00  0.00    +0.030 C 
ATOM      2  C   LIG    1        0.002  -0.004   0.002  0.00  0.00    +0.010 C 
ATOM      3  C   LIG    1       -1.434  -0.535   0.015  0.00  0.00    +0.040 C 
ATOM      4  C   LIG    1       -2.117  -0.099   1.315  0.00  0.00    +0.060 C 
ATOM      5  C   LIG    1       -1.302  -0.604   2.507  0.00  0.00    +0.170 C 
ATOM      6  N   LIG    1        0.052  -0.040   2.452  0.00  0.00    -0.380 N 
ATOM      7  H   LIG    1       -0.004   0.967   2.434  0.00  0.00    +0.420 HD
ATOM      8  C   LIG    1       -1.220  -2.131   2.459  0.00  0.00    +0.070 C 
ATOM      9  C   LIG    1        0.740  -0.512   1.242  0.00  0.00    +0.250 C 
ENDROOT
BRANCH   6  10
ATOM     10  C   LIG    1        0.807  -0.466   3.638  0.00  0.00    +0.240 C 
BRANCH  10  11
ATOM     11  C   LIG    1        2.175   0.220   3.645  0.00  0.00    +0.040 C 
BRANCH  11  12
ATOM     12  C   LIG    1        2.961  -0.224   4.881  0.00  0.00    -0.060 C 
ATOM     13  C   LIG    1        2.189   0.165   6.143  0.00  0.00    +0.030 C 
ATOM     14  C   LIG    1        4.329   0.462   4.888  0.00  0.00    +0.040 C 
ATOM     15  C   LIG    1        3.152  -1.741   4.846  0.00  0.00    +0.030 C 
ENDBRANCH  11  12
ENDBRANCH  10  11
ENDBRANCH   6  10
TORSDOF 3
ENDMDL
MODEL       78
REMARK  Name = ZINC000165195881
REMARK                            x       y       z     vdW  Elec       q    Type
REMARK                         _______ _______ _______ _____ _____    ______ ____
ROOT
ATOM      1  N   LIG    1       -1.310  -2.011  -0.263  0.00  0.00    -0.380 N 
ATOM      2  H   LIG    1       -0.759  -2.239  -1.077  0.00  0.00    +0.420 HD
ENDROOT
BRANCH   1   3
ATOM      3  C   LIG    1       -2.722  -2.319  -0.525  0.00  0.00    +0.160 C 
ATOM      4  C   LIG    1       -3.576  -1.835   0.648  0.00  0.00    +0.080 C 
BRANCH   3   5
ATOM      5  C   LIG    1       -3.169  -1.612  -1.807  0.00  0.00    +0.050 C 
ATOM      6  C   LIG    1       -2.381  -2.167  -2.996  0.00  0.00    +0.030 C 
ENDBRANCH   3   5
ENDBRANCH   1   3
BRANCH   1   7
ATOM      7  C   LIG    1       -1.169  -0.581   0.040  0.00  0.00    +0.240 C 
BRANCH   7   9
ATOM      8  C   LIG    1        0.469   1.283   0.336  0.00  0.00    +0.060 C 
ATOM      9  C   LIG    1        0.316  -0.229   0.159  0.00  0.00    +0.020 C 
ENDBRANCH   7   9
ENDBRANCH   1   7
BRANCH   1  10
ATOM     10  C   LIG    1       -0.841  -2.803   0.882  0.00  0.00    +0.240 C 
BRANCH  10  11
ATOM     11  C   LIG    1       -0.854  -4.288   0.515  0.00  0.00    +0.040 C 
BRANCH  11  12
ATOM     12  C   LIG    1       -0.466  -5.119   1.740  0.00  0.00    -0.010 C 
ATOM     13  C   LIG    1        0.981  -4.811   2.128  0.00  0.00    +0.020 C 
ATOM     14  C   LIG    1       -0.600  -6.607   1.409  0.00  0.00    +0.040 C 
ENDBRANCH  11  12
ENDBRANCH  10  11
ENDBRANCH   1  10
TORSDOF 7
ENDMDL
MODEL       79
REMARK  Name = ZINC000608563209
REMARK                            x       y       z     vdW  Elec       q    Type
REMARK                         _______ _______ _______ _____ _____    ______ ____
ROOT
ATOM      1  N   LIG    1        1.475  -3.990  -2.532  0.00  0.00    -0.380 N 
ATOM      2  C   LIG    1        0.101  -4.497  -2.642  0.00  0.00    +0.320 C 
ATOM      3  H   LIG    1        1.890  -4.325  -1.676  0.00  0.00    +0.420 HD
ENDROOT
BRANCH   1   4
ATOM      4  C   LIG    1        2.265  -4.462  -3.677  0.00  0.00    +0.050 C 
ATOM      5  C   LIG    1        3.696  -3.933  -3.562  0.00  0.00    +0.090 C 
ATOM      6  C   LIG    1        1.636  -3.954  -4.975  0.00  0.00    +0.090 C 
BRANCH   4   7
ATOM      7  C   LIG    1        2.286  -5.992  -3.685  0.00  0.00    +0.040 C 
ATOM      8  C   LIG    1        3.109  -6.484  -4.877  0.00  0.00    +0.060 C 
ENDBRANCH   4   7
ENDBRANCH   1   4
BRANCH   1   9
ATOM      9  C   LIG    1        1.455  -2.521  -2.524  0.00  0.00    +0.230 C 
BRANCH   9  10
ATOM     10  C   LIG    1        0.739  -2.027  -1.265  0.00  0.00    +0.040 C 
BRANCH  10  11
ATOM     11  C   LIG    1        0.718  -0.497  -1.257  0.00  0.00    -0.060 C 
ATOM     12  C   LIG    1        2.154   0.032  -1.268  0.00  0.00    +0.020 C 
ATOM     13  C   LIG    1       -0.022   0.009  -2.496  0.00  0.00    +0.020 C 
BRANCH  11  15
ATOM     14  C   LIG    1       -0.019   1.526   0.010  0.00  0.00    +0.020 C 
ATOM     15  C   LIG    1        0.002  -0.004   0.002  0.00  0.00    +0.030 C 
ENDBRANCH  11  15
ENDBRANCH  10  11
ENDBRANCH   9  10
ENDBRANCH   1   9
TORSDOF 6
ENDMDL
MODEL       80
REMARK  Name = ZINC000608752329
REMARK                            x       y       z     vdW  Elec       q    Type
REMARK                         _______ _______ _______ _____ _____    ______ ____
ROOT
ATOM      1  C   LIG    1       -1.433  -0.534   0.013  0.00  0.00    +0.160 C 
ATOM      2  C   LIG    1       -1.424  -2.075   0.087  0.00  0.00    +0.070 C 
ATOM      3  C   LIG    1       -2.598  -2.477  -0.844  0.00  0.00    -0.010 C 
ATOM      4  C   LIG    1       -2.503  -1.398  -1.951  0.00  0.00    +0.260 C 
ATOM      5  C   LIG    1       -2.384  -3.877  -1.422  0.00  0.00    +0.070 C 
ATOM      6  N   LIG    1       -2.116  -0.158  -1.239  0.00  0.00    -0.390 N 
ATOM      7  H   LIG    1       -1.492   0.385  -1.816  0.00  0.00    +0.420 HD
ENDROOT
BRANCH   1   9
ATOM      8  C   LIG    1       -0.019   1.526   0.010  0.00  0.00    +0.030 C 
ATOM      9  C   LIG    1        0.002  -0.004   0.002  0.00  0.00    +0.060 C 
ENDBRANCH   1   9
BRANCH   6  10
ATOM     10  C   LIG    1       -3.317   0.631  -0.931  0.00  0.00    +0.240 C 
BRANCH  10  11
ATOM     11  C   LIG    1       -3.946   1.131  -2.233  0.00  0.00    +0.040 C 
BRANCH  11  12
ATOM     12  C   LIG    1       -5.197   1.952  -1.913  0.00  0.00    -0.060 C 
ATOM     13  C   LIG    1       -6.203   1.077  -1.163  0.00  0.00    +0.030 C 
ATOM     14  C   LIG    1       -5.826   2.452  -3.215  0.00  0.00    +0.040 C 
ATOM     15  C   LIG    1       -4.811   3.148  -1.040  0.00  0.00    +0.030 C 
ENDBRANCH  11  12
ENDBRANCH  10  11
ENDBRANCH   6  10
TORSDOF 4
ENDMDL
MODEL       81
REMARK  Name = ZINC000608746435
REMARK                            x       y       z     vdW  Elec       q    Type
REMARK                         _______ _______ _______ _____ _____    ______ ____
ROOT
ATOM      1  N   LIG    1        1.640  -3.962   2.399  0.00  0.00    -0.390 N 
ATOM      2  C   LIG    1        2.550  -4.446   1.330  0.00  0.00    +0.250 C 
ATOM      3  C   LIG    1        2.861  -5.902   1.761  0.00  0.00    +0.080 C 
ATOM      4  C   LIG    1        2.955  -5.793   3.300  0.00  0.00    +0.000 C 
ATOM      5  C   LIG    1        2.169  -4.519   3.663  0.00  0.00    +0.250 C 
ATOM      6  H   LIG    1        0.702  -4.297   2.236  0.00  0.00    +0.430 HD
ENDROOT
BRANCH   1   7
ATOM      7  C   LIG    1        1.652  -2.494   2.448  0.00  0.00    +0.250 C 
BRANCH   7   8
ATOM      8  C   LIG    1        1.010  -1.936   1.176  0.00  0.00    +0.030 C 
BRANCH   8   9
ATOM      9  C   LIG    1        1.023  -0.407   1.226  0.00  0.00    +0.020 C 
BRANCH   9  11
ATOM     10  C   LIG    1        0.394   1.680   0.005  0.00  0.00    +0.020 C 
ATOM     11  C   LIG    1        0.381   0.151  -0.046  0.00  0.00    +0.010 C 
ENDBRANCH   9  11
ENDBRANCH   8   9
ENDBRANCH   7   8
ENDBRANCH   1   7
BRANCH   4  12
ATOM     12  C   LIG    1        2.316  -7.018   3.959  0.00  0.00    +0.030 C 
BRANCH  12  13
ATOM     13  C   LIG    1        3.129  -8.266   3.611  0.00  0.00    -0.030 C 
ATOM     14  C   LIG    1        2.413  -9.507   4.147  0.00  0.00    +0.030 C 
ATOM     15  C   LIG    1        4.517  -8.164   4.247  0.00  0.00    +0.010 C 
ENDBRANCH  12  13
ENDBRANCH   4  12
TORSDOF 6
ENDMDL
MODEL       82
REMARK  Name = ZINC000608752330
REMARK                            x       y       z     vdW  Elec       q    Type
REMARK                         _______ _______ _______ _____ _____    ______ ____
ROOT
ATOM      1  C   LIG    1       -1.488  -0.363  -0.057  0.00  0.00    +0.160 C 
ATOM      2  C   LIG    1       -1.557  -1.903  -0.124  0.00  0.00    +0.080 C 
ATOM      3  C   LIG    1       -2.749  -2.240   0.810  0.00  0.00    +0.010 C 
ATOM      4  C   LIG    1       -2.598  -1.163   1.912  0.00  0.00    +0.250 C 
ATOM      5  C   LIG    1       -4.082  -2.090   0.074  0.00  0.00    +0.040 C 
ATOM      6  N   LIG    1       -2.149   0.053   1.193  0.00  0.00    -0.390 N 
ATOM      7  H   LIG    1       -2.945   0.636   0.983  0.00  0.00    +0.420 HD
ENDROOT
BRANCH   1   9
ATOM      8  C   LIG    1        0.633  -0.292  -1.376  0.00  0.00    +0.060 C 
ATOM      9  C   LIG    1       -0.028   0.093  -0.051  0.00  0.00    +0.040 C 
ENDBRANCH   1   9
BRANCH   6  10
ATOM     10  C   LIG    1       -1.196   0.798   2.028  0.00  0.00    +0.250 C 
BRANCH  10  11
ATOM     11  C   LIG    1       -1.904   1.294   3.291  0.00  0.00    +0.040 C 
BRANCH  11  12
ATOM     12  C   LIG    1       -0.912   2.069   4.160  0.00  0.00    -0.060 C 
ATOM     13  C   LIG    1        0.248   1.151   4.552  0.00  0.00    +0.030 C 
ATOM     14  C   LIG    1       -1.619   2.565   5.423  0.00  0.00    +0.040 C 
ATOM     15  C   LIG    1       -0.372   3.266   3.375  0.00  0.00    +0.030 C 
ENDBRANCH  11  12
ENDBRANCH  10  11
ENDBRANCH   6  10
TORSDOF 4
ENDMDL
MODEL       83
REMARK  Name = ZINC000608752328
REMARK                            x       y       z     vdW  Elec       q    Type
REMARK                         _______ _______ _______ _____ _____    ______ ____
ROOT
ATOM      1  C   LIG    1       -1.488  -0.363  -0.057  0.00  0.00    +0.160 C 
ATOM      2  C   LIG    1       -1.557  -1.903  -0.124  0.00  0.00    +0.080 C 
ATOM      3  C   LIG    1       -2.749  -2.240   0.810  0.00  0.00    +0.000 C 
ATOM      4  C   LIG    1       -2.598  -1.163   1.912  0.00  0.00    +0.250 C 
ATOM      5  C   LIG    1       -2.606  -3.647   1.395  0.00  0.00    +0.070 C 
ATOM      6  N   LIG    1       -2.149   0.053   1.193  0.00  0.00    -0.390 N 
ATOM      7  H   LIG    1       -2.945   0.636   0.983  0.00  0.00    +0.420 HD
ENDROOT
BRANCH   1   9
ATOM      8  C   LIG    1        0.633  -0.292  -1.376  0.00  0.00    +0.060 C 
ATOM      9  C   LIG    1       -0.028   0.093  -0.051  0.00  0.00    +0.040 C 
ENDBRANCH   1   9
BRANCH   6  10
ATOM     10  C   LIG    1       -1.196   0.798   2.028  0.00  0.00    +0.250 C 
BRANCH  10  11
ATOM     11  C   LIG    1       -1.904   1.294   3.291  0.00  0.00    +0.040 C 
BRANCH  11  12
ATOM     12  C   LIG    1       -0.912   2.069   4.160  0.00  0.00    -0.060 C 
ATOM     13  C   LIG    1        0.248   1.151   4.552  0.00  0.00    +0.030 C 
ATOM     14  C   LIG    1       -1.619   2.565   5.423  0.00  0.00    +0.040 C 
ATOM     15  C   LIG    1       -0.372   3.266   3.375  0.00  0.00    +0.030 C 
ENDBRANCH  11  12
ENDBRANCH  10  11
ENDBRANCH   6  10
TORSDOF 4
ENDMDL
MODEL       84
REMARK  Name = ZINC000608752331
REMARK                            x       y       z     vdW  Elec       q    Type
REMARK                         _______ _______ _______ _____ _____    ______ ____
ROOT
ATOM      1  C   LIG    1       -1.433  -0.534   0.013  0.00  0.00    +0.170 C 
ATOM      2  C   LIG    1       -1.424  -2.072   0.085  0.00  0.00    +0.080 C 
ATOM      3  C   LIG    1       -2.169  -2.540  -1.186  0.00  0.00    -0.010 C 
ATOM      4  C   LIG    1       -3.015  -1.300  -1.569  0.00  0.00    +0.260 C 
ATOM      5  C   LIG    1       -3.067  -3.739  -0.877  0.00  0.00    +0.070 C 
ATOM      6  N   LIG    1       -2.118  -0.158  -1.243  0.00  0.00    -0.390 N 
ATOM      7  H   LIG    1       -1.442  -0.026  -1.980  0.00  0.00    +0.420 HD
ENDROOT
BRANCH   1   9
ATOM      8  C   LIG    1       -0.019   1.526   0.010  0.00  0.00    +0.020 C 
ATOM      9  C   LIG    1        0.002  -0.004   0.002  0.00  0.00    +0.060 C 
ENDBRANCH   1   9
BRANCH   6  10
ATOM     10  C   LIG    1       -2.907   1.067  -1.052  0.00  0.00    +0.250 C 
BRANCH  10  11
ATOM     11  C   LIG    1       -3.548   1.472  -2.381  0.00  0.00    +0.040 C 
BRANCH  11  12
ATOM     12  C   LIG    1       -4.369   2.748  -2.183  0.00  0.00    -0.060 C 
ATOM     13  C   LIG    1       -5.464   2.493  -1.145  0.00  0.00    +0.030 C 
ATOM     14  C   LIG    1       -5.010   3.154  -3.511  0.00  0.00    +0.040 C 
ATOM     15  C   LIG    1       -3.454   3.873  -1.693  0.00  0.00    +0.030 C 
ENDBRANCH  11  12
ENDBRANCH  10  11
ENDBRANCH   6  10
TORSDOF 4
ENDMDL
MODEL       85
REMARK  Name = ZINC000608746437
REMARK                            x       y       z     vdW  Elec       q    Type
REMARK                         _______ _______ _______ _____ _____    ______ ____
ROOT
ATOM      1  N   LIG    1        1.523  -4.016   2.465  0.00  0.00    -0.390 N 
ATOM      2  C   LIG    1        2.366  -4.509   1.353  0.00  0.00    +0.250 C 
ATOM      3  C   LIG    1        3.074  -5.782   1.854  0.00  0.00    +0.060 C 
ATOM      4  C   LIG    1        2.605  -5.956   3.316  0.00  0.00    +0.000 C 
ATOM      5  C   LIG    1        2.152  -4.527   3.709  0.00  0.00    +0.270 C 
ATOM      6  H   LIG    1        0.585  -4.377   2.376  0.00  0.00    +0.430 HD
ENDROOT
BRANCH   1   7
ATOM      7  C   LIG    1        1.503  -2.548   2.473  0.00  0.00    +0.250 C 
BRANCH   7   8
ATOM      8  C   LIG    1        0.763  -2.041   1.233  0.00  0.00    +0.030 C 
BRANCH   8   9
ATOM      9  C   LIG    1        0.742  -0.511   1.242  0.00  0.00    +0.020 C 
BRANCH   9  11
ATOM     10  C   LIG    1       -0.019   1.526   0.010  0.00  0.00    +0.020 C 
ATOM     11  C   LIG    1        0.002  -0.004   0.002  0.00  0.00    +0.010 C 
ENDBRANCH   9  11
ENDBRANCH   8   9
ENDBRANCH   7   8
ENDBRANCH   1   7
BRANCH   4  12
ATOM     12  C   LIG    1        3.760  -6.426   4.203  0.00  0.00    +0.040 C 
BRANCH  12  13
ATOM     13  C   LIG    1        4.179  -7.838   3.789  0.00  0.00    -0.030 C 
ATOM     14  C   LIG    1        3.033  -8.812   4.069  0.00  0.00    +0.020 C 
ATOM     15  C   LIG    1        5.413  -8.259   4.590  0.00  0.00    +0.030 C 
ENDBRANCH  12  13
ENDBRANCH   4  12
TORSDOF 6
ENDMDL
MODEL       86
REMARK  Name = ZINC001170122885
REMARK                            x       y       z     vdW  Elec       q    Type
REMARK                         _______ _______ _______ _____ _____    ______ ____
ROOT
ATOM      1  N   LIG    1       -0.807  -2.071  -0.102  0.00  0.00    -0.380 N 
ATOM      2  H   LIG    1       -0.098  -2.583  -0.605  0.00  0.00    +0.420 HD
ENDROOT
BRANCH   1   3
ATOM      3  C   LIG    1       -2.082  -2.161  -0.825  0.00  0.00    +0.160 C 
ATOM      4  C   LIG    1       -1.948  -1.546  -2.240  0.00  0.00    +0.040 C 
ATOM      5  C   LIG    1       -3.087  -2.243  -3.026  0.00  0.00    +0.050 C 
ATOM      6  C   LIG    1       -3.090  -3.688  -2.486  0.00  0.00    +0.000 C 
ATOM      7  C   LIG    1       -4.525  -4.209  -2.389  0.00  0.00    +0.040 C 
ATOM      8  C   LIG    1       -2.452  -3.636  -1.085  0.00  0.00    +0.050 C 
ENDBRANCH   1   3
BRANCH   1   9
ATOM      9  C   LIG    1       -0.964  -2.643   1.242  0.00  0.00    +0.160 C 
ATOM     10  C   LIG    1       -0.766  -4.159   1.177  0.00  0.00    +0.080 C 
BRANCH   9  11
ATOM     11  C   LIG    1       -2.368  -2.333   1.767  0.00  0.00    +0.050 C 
ATOM     12  C   LIG    1       -2.504  -0.828   2.002  0.00  0.00    +0.030 C 
ENDBRANCH   9  11
ENDBRANCH   1   9
BRANCH   1  13
ATOM     13  C   LIG    1       -0.407  -0.661   0.009  0.00  0.00    +0.230 C 
BRANCH  13  15
ATOM     14  C   LIG    1        1.480   0.877   0.574  0.00  0.00    +0.060 C 
ATOM     15  C   LIG    1        1.003  -0.577   0.598  0.00  0.00    +0.010 C 
ENDBRANCH  13  15
ENDBRANCH   1  13
TORSDOF 5
ENDMDL
MODEL       87
REMARK  Name = ZINC000202734059
REMARK                            x       y       z     vdW  Elec       q    Type
REMARK                         _______ _______ _______ _____ _____    ______ ____
ROOT
ATOM      1  N   LIG    1       -0.072  -0.249   2.457  0.00  0.00    -0.390 N 
ATOM      2  C   LIG    1       -1.315  -1.031   2.409  0.00  0.00    +0.310 C 
ATOM      3  H   LIG    1       -0.296   0.735   2.493  0.00  0.00    +0.420 HD
ENDROOT
BRANCH   1   4
ATOM      4  C   LIG    1        0.727  -0.525   1.256  0.00  0.00    +0.170 C 
ATOM      5  C   LIG    1        2.021   0.290   1.306  0.00  0.00    +0.080 C 
BRANCH   4   7
ATOM      6  C   LIG    1       -0.303   1.375   0.003  0.00  0.00    +0.040 C 
ATOM      7  C   LIG    1       -0.072  -0.138   0.010  0.00  0.00    -0.020 C 
ATOM      8  C   LIG    1        0.709  -0.541  -1.243  0.00  0.00    +0.070 C 
ENDBRANCH   4   7
ENDBRANCH   1   4
BRANCH   1   9
ATOM      9  C   LIG    1        0.695  -0.621   3.652  0.00  0.00    +0.250 C 
BRANCH   9  10
ATOM     10  C   LIG    1       -0.081  -0.209   4.905  0.00  0.00    -0.020 C 
ATOM     11  C   LIG    1        0.655  -0.711   6.149  0.00  0.00    +0.030 C 
ATOM     12  C   LIG    1       -0.121  -0.299   7.402  0.00  0.00    +0.020 C 
ATOM     13  C   LIG    1       -0.232   1.226   7.455  0.00  0.00    +0.010 C 
ATOM     14  C   LIG    1       -0.968   1.728   6.211  0.00  0.00    +0.020 C 
ATOM     15  C   LIG    1       -0.192   1.316   4.958  0.00  0.00    +0.000 C 
ENDBRANCH   9  10
ENDBRANCH   1   9
TORSDOF 4
ENDMDL
MODEL       88
REMARK  Name = ZINC000202850664
REMARK                            x       y       z     vdW  Elec       q    Type
REMARK                         _______ _______ _______ _____ _____    ______ ____
ROOT
ATOM      1  C   LIG    1        0.837  -1.953   1.124  0.00  0.00    +0.170 C 
ATOM      2  C   LIG    1        1.621  -2.340  -0.132  0.00  0.00    +0.060 C 
ATOM      3  C   LIG    1        3.015  -1.711  -0.077  0.00  0.00    +0.020 C 
ATOM      4  C   LIG    1        3.755  -2.218   1.163  0.00  0.00    +0.010 C 
ATOM      5  C   LIG    1        2.971  -1.831   2.418  0.00  0.00    +0.020 C 
ATOM      6  C   LIG    1        1.577  -2.460   2.364  0.00  0.00    +0.060 C 
ENDROOT
BRANCH   4   7
ATOM      7  C   LIG    1        5.149  -1.589   1.217  0.00  0.00    -0.060 C 
ATOM      8  C   LIG    1        5.932  -1.977  -0.039  0.00  0.00    +0.030 C 
ATOM      9  C   LIG    1        5.888  -2.096   2.457  0.00  0.00    +0.030 C 
ATOM     10  C   LIG    1        5.019  -0.067   1.288  0.00  0.00    +0.010 C 
ENDBRANCH   4   7
BRANCH   1  11
ATOM     11  N   LIG    1        0.713  -0.491   1.192  0.00  0.00    -0.390 N 
ATOM     12  C   LIG    1       -0.040  -0.119   2.398  0.00  0.00    +0.300 C 
ATOM     13  H   LIG    1        1.632  -0.076   1.228  0.00  0.00    +0.420 HD
BRANCH  11  15
ATOM     14  C   LIG    1       -0.019   1.526   0.010  0.00  0.00    +0.080 C 
ATOM     15  C   LIG    1        0.002  -0.004   0.002  0.00  0.00    +0.240 C 
ENDBRANCH  11  15
ENDBRANCH   1  11
TORSDOF 3
ENDMDL
MODEL       89
REMARK  Name = ZINC001170122886
REMARK                            x       y       z     vdW  Elec       q    Type
REMARK                         _______ _______ _______ _____ _____    ______ ____
ROOT
ATOM      1  N   LIG    1       -1.270  -2.143   0.046  0.00  0.00    -0.370 N 
ATOM      2  H   LIG    1       -0.891  -2.714  -0.695  0.00  0.00    +0.420 HD
ENDROOT
BRANCH   1   3
ATOM      3  C   LIG    1       -2.735  -2.123  -0.051  0.00  0.00    +0.150 C 
ATOM      4  C   LIG    1       -3.297  -3.561  -0.165  0.00  0.00    +0.050 C 
ATOM      5  C   LIG    1       -4.667  -3.379  -0.851  0.00  0.00    +0.050 C 
ATOM      6  C   LIG    1       -4.598  -2.050  -1.624  0.00  0.00    +0.000 C 
ATOM      7  C   LIG    1       -4.812  -2.302  -3.118  0.00  0.00    +0.040 C 
ATOM      8  C   LIG    1       -3.189  -1.467  -1.379  0.00  0.00    +0.040 C 
ENDBRANCH   1   3
BRANCH   1   9
ATOM      9  C   LIG    1       -0.872  -2.699   1.346  0.00  0.00    +0.160 C 
ATOM     10  C   LIG    1       -0.798  -4.224   1.247  0.00  0.00    +0.080 C 
BRANCH   9  11
ATOM     11  C   LIG    1       -1.903  -2.306   2.405  0.00  0.00    +0.050 C 
ATOM     12  C   LIG    1       -1.879  -0.789   2.603  0.00  0.00    +0.030 C 
ENDBRANCH   9  11
ENDBRANCH   1   9
BRANCH   1  13
ATOM     13  C   LIG    1       -0.752  -0.773  -0.080  0.00  0.00    +0.230 C 
BRANCH  13  15
ATOM     14  C   LIG    1        1.311   0.599  -0.398  0.00  0.00    +0.060 C 
ATOM     15  C   LIG    1        0.777  -0.809  -0.128  0.00  0.00    +0.010 C 
ENDBRANCH  13  15
ENDBRANCH   1  13
TORSDOF 5
ENDMDL
MODEL       90
REMARK  Name = ZINC001170122884
REMARK                            x       y       z     vdW  Elec       q    Type
REMARK                         _______ _______ _______ _____ _____    ______ ____
ROOT
ATOM      1  N   LIG    1       -1.286  -2.101   0.016  0.00  0.00    -0.380 N 
ATOM      2  H   LIG    1       -0.698  -2.535  -0.680  0.00  0.00    +0.420 HD
ENDROOT
BRANCH   1   3
ATOM      3  C   LIG    1       -2.689  -2.453  -0.241  0.00  0.00    +0.150 C 
ATOM      4  C   LIG    1       -3.131  -1.935  -1.625  0.00  0.00    +0.030 C 
ATOM      5  C   LIG    1       -4.058  -3.008  -2.221  0.00  0.00    +0.040 C 
ATOM      6  C   LIG    1       -4.147  -4.142  -1.178  0.00  0.00    +0.000 C 
ATOM      7  C   LIG    1       -4.183  -5.505  -1.871  0.00  0.00    +0.040 C 
ATOM      8  C   LIG    1       -2.854  -3.990  -0.337  0.00  0.00    +0.050 C 
ENDBRANCH   1   3
BRANCH   1   9
ATOM      9  C   LIG    1       -0.899  -2.576   1.351  0.00  0.00    +0.160 C 
ATOM     10  C   LIG    1       -0.423  -4.028   1.257  0.00  0.00    +0.070 C 
BRANCH   9  11
ATOM     11  C   LIG    1       -2.103  -2.494   2.291  0.00  0.00    +0.060 C 
ATOM     12  C   LIG    1       -2.485  -1.028   2.503  0.00  0.00    +0.030 C 
ENDBRANCH   9  11
ENDBRANCH   1   9
BRANCH   1  13
ATOM     13  C   LIG    1       -1.127  -0.642  -0.049  0.00  0.00    +0.230 C 
BRANCH  13  15
ATOM     14  C   LIG    1        0.536   1.221  -0.140  0.00  0.00    +0.060 C 
ATOM     15  C   LIG    1        0.356  -0.285   0.065  0.00  0.00    +0.010 C 
ENDBRANCH  13  15
ENDBRANCH   1  13
TORSDOF 5
ENDMDL
MODEL       91
REMARK  Name = ZINC001170122883
REMARK                            x       y       z     vdW  Elec       q    Type
REMARK                         _______ _______ _______ _____ _____    ______ ____
ROOT
ATOM      1  N   LIG    1       -0.840  -2.091  -0.011  0.00  0.00    -0.380 N 
ATOM      2  H   LIG    1       -0.157  -2.630  -0.520  0.00  0.00    +0.420 HD
ENDROOT
BRANCH   1   3
ATOM      3  C   LIG    1       -2.132  -2.152  -0.709  0.00  0.00    +0.160 C 
ATOM      4  C   LIG    1       -2.527  -3.622  -0.959  0.00  0.00    +0.050 C 
ATOM      5  C   LIG    1       -3.203  -3.601  -2.353  0.00  0.00    +0.050 C 
ATOM      6  C   LIG    1       -2.345  -2.574  -3.134  0.00  0.00    -0.020 C 
ATOM      7  C   LIG    1       -3.145  -1.982  -4.296  0.00  0.00    +0.040 C 
ATOM      8  C   LIG    1       -2.016  -1.485  -2.091  0.00  0.00    +0.040 C 
ENDBRANCH   1   3
BRANCH   1   9
ATOM      9  C   LIG    1       -0.989  -2.641   1.343  0.00  0.00    +0.160 C 
ATOM     10  C   LIG    1       -0.850  -4.164   1.293  0.00  0.00    +0.080 C 
BRANCH   9  11
ATOM     11  C   LIG    1       -2.367  -2.272   1.895  0.00  0.00    +0.050 C 
ATOM     12  C   LIG    1       -2.443  -0.759   2.108  0.00  0.00    +0.030 C 
ENDBRANCH   9  11
ENDBRANCH   1   9
BRANCH   1  13
ATOM     13  C   LIG    1       -0.396  -0.693   0.074  0.00  0.00    +0.240 C 
BRANCH  13  15
ATOM     14  C   LIG    1        1.546   0.795   0.584  0.00  0.00    +0.060 C 
ATOM     15  C   LIG    1        1.026  -0.643   0.637  0.00  0.00    +0.010 C 
ENDBRANCH  13  15
ENDBRANCH   1  13
TORSDOF 5
ENDMDL
MODEL       92
REMARK  Name = ZINC001170143967
REMARK                            x       y       z     vdW  Elec       q    Type
REMARK                         _______ _______ _______ _____ _____    ______ ____
ROOT
ATOM      1  N   LIG    1        1.523  -2.703  -2.580  0.00  0.00    -0.380 N 
ATOM      2  H   LIG    1        1.158  -2.345  -3.450  0.00  0.00    +0.420 HD
ENDROOT
BRANCH   1   3
ATOM      3  C   LIG    1        1.675  -4.161  -2.675  0.00  0.00    +0.160 C 
ATOM      4  C   LIG    1        2.571  -4.542  -3.879  0.00  0.00    +0.040 C 
ATOM      5  C   LIG    1        2.154  -5.988  -4.218  0.00  0.00    +0.050 C 
ATOM      6  C   LIG    1        0.725  -6.172  -3.677  0.00  0.00    +0.000 C 
ATOM      7  C   LIG    1       -0.230  -6.507  -4.824  0.00  0.00    +0.040 C 
ATOM      8  C   LIG    1        0.323  -4.832  -3.023  0.00  0.00    +0.040 C 
ENDBRANCH   1   3
BRANCH   1   9
ATOM      9  C   LIG    1        0.594  -2.377  -1.489  0.00  0.00    +0.240 C 
BRANCH   9  10
ATOM     10  C   LIG    1        0.339  -0.869  -1.470  0.00  0.00    +0.030 C 
BRANCH  10  12
ATOM     11  C   LIG    1       -0.884   0.979  -0.314  0.00  0.00    +0.030 C 
ATOM     12  C   LIG    1       -0.629  -0.530  -0.334  0.00  0.00    +0.020 C 
ENDBRANCH  10  12
ENDBRANCH   9  10
ENDBRANCH   1   9
BRANCH   1  13
ATOM     13  C   LIG    1        2.830  -2.091  -2.308  0.00  0.00    +0.240 C 
BRANCH  13  14
ATOM     14  C   LIG    1        3.349  -2.576  -0.953  0.00  0.00    +0.020 C 
ATOM     15  C   LIG    1        4.766  -2.046  -0.729  0.00  0.00    +0.060 C 
ENDBRANCH  13  14
ENDBRANCH   1  13
TORSDOF 6
ENDMDL
MODEL       93
REMARK  Name = ZINC000197112373
REMARK                            x       y       z     vdW  Elec       q    Type
REMARK                         _______ _______ _______ _____ _____    ______ ____
ROOT
ATOM      1  N   LIG    1        2.234  -4.564   3.654  0.00  0.00    -0.380 N 
ATOM      2  C   LIG    1        1.482  -4.192   4.860  0.00  0.00    +0.320 C 
ATOM      3  H   LIG    1        3.153  -4.149   3.690  0.00  0.00    +0.420 HD
ENDROOT
BRANCH   1   4
ATOM      4  C   LIG    1        2.359  -6.026   3.587  0.00  0.00    +0.170 C 
ATOM      5  C   LIG    1        3.142  -6.413   2.331  0.00  0.00    +0.040 C 
ATOM      6  C   LIG    1        3.272  -7.936   2.260  0.00  0.00    +0.030 C 
ATOM      7  C   LIG    1        4.012  -8.443   3.500  0.00  0.00    +0.020 C 
ATOM      8  C   LIG    1        3.229  -8.056   4.755  0.00  0.00    +0.030 C 
ATOM      9  C   LIG    1        3.099  -6.533   4.826  0.00  0.00    +0.040 C 
ENDBRANCH   1   4
BRANCH   1  10
ATOM     10  C   LIG    1        1.524  -4.077   2.464  0.00  0.00    +0.240 C 
BRANCH  10  11
ATOM     11  C   LIG    1        1.503  -2.548   2.473  0.00  0.00    +0.030 C 
BRANCH  11  12
ATOM     12  C   LIG    1        0.763  -2.041   1.233  0.00  0.00    +0.020 C 
BRANCH  12  13
ATOM     13  C   LIG    1        0.742  -0.511   1.242  0.00  0.00    +0.020 C 
BRANCH  13  15
ATOM     14  C   LIG    1       -0.019   1.526   0.010  0.00  0.00    +0.020 C 
ATOM     15  C   LIG    1        0.002  -0.004   0.002  0.00  0.00    -0.010 C 
ENDBRANCH  13  15
ENDBRANCH  12  13
ENDBRANCH  11  12
ENDBRANCH  10  11
ENDBRANCH   1  10
TORSDOF 6
ENDMDL
MODEL       94
REMARK  Name = ZINC001170148327
REMARK                            x       y       z     vdW  Elec       q    Type
REMARK                         _______ _______ _______ _____ _____    ______ ____
ROOT
ATOM      1  N   LIG    1       -2.069  -0.275   1.342  0.00  0.00    -0.380 N 
ATOM      2  H   LIG    1       -1.841  -0.520   2.294  0.00  0.00    +0.420 HD
ENDROOT
BRANCH   1   3
ATOM      3  C   LIG    1       -3.282  -0.994   0.929  0.00  0.00    +0.150 C 
ATOM      4  C   LIG    1       -3.041  -2.517   0.955  0.00  0.00    +0.030 C 
ATOM      5  C   LIG    1       -4.344  -3.159   1.463  0.00  0.00    +0.040 C 
ATOM      6  C   LIG    1       -5.331  -2.003   1.728  0.00  0.00    +0.000 C 
ATOM      7  C   LIG    1       -6.169  -2.290   2.975  0.00  0.00    +0.040 C 
ATOM      8  C   LIG    1       -4.421  -0.768   1.953  0.00  0.00    +0.050 C 
ENDBRANCH   1   3
BRANCH   1   9
ATOM      9  C   LIG    1       -2.304   1.173   1.252  0.00  0.00    +0.250 C 
ATOM     10  C   LIG    1       -3.034   1.651   2.509  0.00  0.00    +0.070 C 
ENDBRANCH   1   9
BRANCH   1  11
ATOM     11  C   LIG    1       -0.955  -0.646   0.460  0.00  0.00    +0.160 C 
BRANCH  11  13
ATOM     12  C   LIG    1       -2.322  -0.362  -1.612  0.00  0.00    +0.030 C 
ATOM     13  C   LIG    1       -1.076   0.114  -0.862  0.00  0.00    +0.050 C 
ENDBRANCH  11  13
BRANCH  11  14
ATOM     14  C   LIG    1        0.371  -0.287   1.134  0.00  0.00    +0.050 C 
ATOM     15  C   LIG    1        0.523  -1.099   2.423  0.00  0.00    +0.040 C 
ENDBRANCH  11  14
ENDBRANCH   1  11
TORSDOF 5
ENDMDL
MODEL       95
REMARK  Name = ZINC001242255199
REMARK                            x       y       z     vdW  Elec       q    Type
REMARK                         _______ _______ _______ _____ _____    ______ ____
ROOT
ATOM      1  C   LIG    1        0.273  -4.146  -2.313  0.00  0.00    +0.100 A 
ATOM      2  C   LIG    1        0.795  -4.864  -1.231  0.00  0.00    +0.020 A 
ATOM      3  C   LIG    1        0.793  -6.242  -1.280  0.00  0.00    +0.180 A 
ATOM      4  N   LIG    1        0.309  -6.883  -2.328  0.00  0.00    -0.470 N 
ATOM      5  C   LIG    1       -0.193  -6.245  -3.368  0.00  0.00    +0.170 A 
ATOM      6  C   LIG    1       -0.732  -7.032  -4.534  0.00  0.00    +0.200 C 
ATOM      7  H   LIG    1        0.322  -7.852  -2.333  0.00  0.00    +0.440 HD
ATOM      8  C   LIG    1        1.352  -7.028  -0.122  0.00  0.00    +0.190 C 
ATOM      9  C   LIG    1       -0.235  -4.866  -3.400  0.00  0.00    +0.040 A 
ENDROOT
BRANCH   1  11
ATOM     10  C   LIG    1        0.739  -2.004  -1.265  0.00  0.00    +0.080 C 
ATOM     11  C   LIG    1        0.253  -2.668  -2.305  0.00  0.00    -0.040 C 
BRANCH  10  12
ATOM     12  C   LIG    1        0.718  -0.497  -1.257  0.00  0.00    +0.060 C 
BRANCH  12  14
ATOM     13  C   LIG    1       -0.019   1.526   0.010  0.00  0.00    +0.020 C 
ATOM     14  C   LIG    1        0.002  -0.004   0.002  0.00  0.00    +0.020 C 
ENDBRANCH  12  14
ENDBRANCH  10  12
ENDBRANCH   1  11
TORSDOF 3
ENDMDL
MODEL       96
REMARK  Name = ZINC001170148324
REMARK                            x       y       z     vdW  Elec       q    Type
REMARK                         _______ _______ _______ _____ _____    ______ ____
ROOT
ATOM      1  N   LIG    1       -2.099  -0.352   1.385  0.00  0.00    -0.380 N 
ATOM      2  H   LIG    1       -1.766  -0.479   2.329  0.00  0.00    +0.420 HD
ENDROOT
BRANCH   1   3
ATOM      3  C   LIG    1       -3.332  -1.128   1.193  0.00  0.00    +0.150 C 
ATOM      4  C   LIG    1       -4.339  -0.806   2.316  0.00  0.00    +0.050 C 
ATOM      5  C   LIG    1       -5.027  -2.162   2.609  0.00  0.00    +0.050 C 
ATOM      6  C   LIG    1       -3.862  -3.174   2.472  0.00  0.00    -0.020 C 
ATOM      7  C   LIG    1       -4.399  -4.571   2.156  0.00  0.00    +0.040 C 
ATOM      8  C   LIG    1       -3.028  -2.633   1.291  0.00  0.00    +0.040 C 
ENDBRANCH   1   3
BRANCH   1   9
ATOM      9  C   LIG    1       -2.374   1.072   1.150  0.00  0.00    +0.240 C 
ATOM     10  C   LIG    1       -3.260   1.612   2.275  0.00  0.00    +0.070 C 
ENDBRANCH   1   9
BRANCH   1  11
ATOM     11  C   LIG    1       -1.076  -0.816   0.439  0.00  0.00    +0.160 C 
BRANCH  11  13
ATOM     12  C   LIG    1       -2.634  -1.085  -1.496  0.00  0.00    +0.030 C 
ATOM     13  C   LIG    1       -1.419  -0.319  -0.967  0.00  0.00    +0.050 C 
ENDBRANCH  11  13
BRANCH  11  14
ATOM     14  C   LIG    1        0.290  -0.266   0.854  0.00  0.00    +0.050 C 
ATOM     15  C   LIG    1        0.647  -0.786   2.248  0.00  0.00    +0.040 C 
ENDBRANCH  11  14
ENDBRANCH   1  11
TORSDOF 5
ENDMDL
MODEL       97
REMARK  Name = ZINC000114691789
REMARK                            x       y       z     vdW  Elec       q    Type
REMARK                         _______ _______ _______ _____ _____    ______ ____
ROOT
ATOM      1  N   LIG    1        1.575  -2.284   2.448  0.00  0.00    -0.390 N 
ATOM      2  H   LIG    1        2.443  -1.833   2.698  0.00  0.00    +0.420 HD
ENDROOT
BRANCH   1   3
ATOM      3  C   LIG    1        0.647  -2.222   3.585  0.00  0.00    +0.240 C 
ATOM      4  C   LIG    1        1.320  -2.814   4.825  0.00  0.00    +0.080 C 
ENDBRANCH   1   3
BRANCH   1   5
ATOM      5  C   LIG    1        0.982  -1.597   1.294  0.00  0.00    +0.240 C 
BRANCH   5   6
ATOM      6  C   LIG    1        0.828  -0.108   1.610  0.00  0.00    +0.030 C 
BRANCH   6   8
ATOM      7  C   LIG    1        0.055   2.097   0.724  0.00  0.00    +0.030 C 
ATOM      8  C   LIG    1        0.209   0.608   0.407  0.00  0.00    +0.020 C 
ENDBRANCH   6   8
ENDBRANCH   5   6
ENDBRANCH   1   5
BRANCH   1   9
ATOM      9  C   LIG    1        1.834  -3.688   2.103  0.00  0.00    +0.250 C 
BRANCH   9  10
ATOM     10  C   LIG    1        2.901  -3.756   1.008  0.00  0.00    +0.040 C 
BRANCH  10  11
ATOM     11  C   LIG    1        3.259  -5.218   0.735  0.00  0.00    -0.060 C 
ATOM     12  C   LIG    1        3.800  -5.858   2.014  0.00  0.00    +0.030 C 
ATOM     13  C   LIG    1        4.325  -5.286  -0.360  0.00  0.00    +0.040 C 
ATOM     14  C   LIG    1        2.009  -5.972   0.277  0.00  0.00    +0.030 C 
ENDBRANCH  10  11
ENDBRANCH   9  10
ENDBRANCH   1   9
TORSDOF 7
ENDMDL
MODEL       98
REMARK  Name = ZINC001242255834
REMARK                            x       y       z     vdW  Elec       q    Type
REMARK                         _______ _______ _______ _____ _____    ______ ____
ROOT
ATOM      1  C   LIG    1        0.273  -4.146  -2.313  0.00  0.00    -0.060 A 
ATOM      2  C   LIG    1        1.447  -4.843  -2.010  0.00  0.00    +0.050 A 
ATOM      3  C   LIG    1        1.413  -6.227  -2.031  0.00  0.00    +0.040 A 
ATOM      4  C   LIG    1        0.231  -6.870  -2.348  0.00  0.00    +0.160 A 
ATOM      5  N   LIG    1       -0.862  -6.186  -2.628  0.00  0.00    -0.450 N 
ATOM      6  H   LIG    1       -1.676  -6.667  -2.845  0.00  0.00    +0.440 HD
ATOM      7  C   LIG    1        0.189  -8.376  -2.371  0.00  0.00    +0.200 C 
ATOM      8  C   LIG    1        2.717  -4.107  -1.669  0.00  0.00    +0.160 C 
ATOM      9  C   LIG    1       -0.881  -4.870  -2.616  0.00  0.00    +0.170 A 
ATOM     10  C   LIG    1       -2.157  -4.138  -2.945  0.00  0.00    +0.200 C 
ENDROOT
BRANCH   1  12
ATOM     11  C   LIG    1        0.739  -2.004  -1.265  0.00  0.00    +0.040 C 
ATOM     12  C   LIG    1        0.253  -2.668  -2.304  0.00  0.00    -0.030 C 
BRANCH  11  13
ATOM     13  C   LIG    1        0.718  -0.497  -1.257  0.00  0.00    +0.060 C 
BRANCH  13  15
ATOM     14  C   LIG    1       -0.019   1.526   0.010  0.00  0.00    +0.020 C 
ATOM     15  C   LIG    1        0.002  -0.004   0.002  0.00  0.00    +0.010 C 
ENDBRANCH  13  15
ENDBRANCH  11  13
ENDBRANCH   1  12
TORSDOF 3
ENDMDL
MODEL       99
REMARK  Name = ZINC001170143966
REMARK                            x       y       z     vdW  Elec       q    Type
REMARK                         _______ _______ _______ _____ _____    ______ ____
ROOT
ATOM      1  N   LIG    1        1.504  -2.674  -2.570  0.00  0.00    -0.380 N 
ATOM      2  H   LIG    1        1.061  -2.374  -3.425  0.00  0.00    +0.420 HD
ENDROOT
BRANCH   1   3
ATOM      3  C   LIG    1        1.658  -4.135  -2.584  0.00  0.00    +0.150 C 
ATOM      4  C   LIG    1        0.318  -4.816  -2.932  0.00  0.00    +0.030 C 
ATOM      5  C   LIG    1        0.657  -6.025  -3.821  0.00  0.00    +0.040 C 
ATOM      6  C   LIG    1        2.191  -6.037  -3.982  0.00  0.00    +0.000 C 
ATOM      7  C   LIG    1        2.577  -6.467  -5.399  0.00  0.00    +0.040 C 
ATOM      8  C   LIG    1        2.615  -4.568  -3.722  0.00  0.00    +0.050 C 
ENDBRANCH   1   3
BRANCH   1   9
ATOM      9  C   LIG    1        0.674  -2.280  -1.424  0.00  0.00    +0.240 C 
BRANCH   9  10
ATOM     10  C   LIG    1        0.410  -0.774  -1.479  0.00  0.00    +0.030 C 
BRANCH  10  12
ATOM     11  C   LIG    1       -0.718   1.142  -0.340  0.00  0.00    +0.030 C 
ATOM     12  C   LIG    1       -0.455  -0.364  -0.285  0.00  0.00    +0.020 C 
ENDBRANCH  10  12
ENDBRANCH   9  10
ENDBRANCH   1   9
BRANCH   1  13
ATOM     13  C   LIG    1        2.826  -2.044  -2.456  0.00  0.00    +0.240 C 
BRANCH  13  14
ATOM     14  C   LIG    1        3.500  -2.502  -1.161  0.00  0.00    +0.020 C 
ATOM     15  C   LIG    1        4.915  -1.923  -1.090  0.00  0.00    +0.060 C 
ENDBRANCH  13  14
ENDBRANCH   1  13
TORSDOF 6
ENDMDL
MODEL      100
REMARK  Name = ZINC000144691055
REMARK                            x       y       z     vdW  Elec       q    Type
REMARK                         _______ _______ _______ _____ _____    ______ ____
ROOT
ATOM      1  N   LIG    1       -1.375  -0.500   0.148  0.00  0.00    -0.380 N 
ATOM      2  C   LIG    1       -2.130  -0.103  -1.016  0.00  0.00    +0.240 C 
ATOM      3  C   LIG    1       -3.561   0.227  -0.559  0.00  0.00    +0.050 C 
ATOM      4  C   LIG    1       -4.412  -0.951  -0.451  0.00  0.00    +0.040 C 
ATOM      5  C   LIG    1       -3.856  -1.944   0.600  0.00  0.00    -0.020 C 
ATOM      6  C   LIG    1       -2.671  -2.662   0.010  0.00  0.00    +0.060 C 
ATOM      7  C   LIG    1       -1.327  -1.970   0.298  0.00  0.00    +0.250 C 
ATOM      8  H   LIG    1       -1.802  -0.099   0.969  0.00  0.00    +0.420 HD
ENDROOT
BRANCH   5   9
ATOM      9  C   LIG    1       -4.940  -2.958   0.972  0.00  0.00    -0.060 C 
ATOM     10  C   LIG    1       -6.188  -2.216   1.454  0.00  0.00    +0.030 C 
ATOM     11  C   LIG    1       -4.425  -3.869   2.088  0.00  0.00    +0.030 C 
ATOM     12  C   LIG    1       -5.291  -3.802  -0.255  0.00  0.00    +0.030 C 
ENDBRANCH   5   9
BRANCH   1  14
ATOM     13  C   LIG    1       -0.029   1.542   0.022  0.00  0.00    +0.090 C 
ATOM     14  C   LIG    1       -0.003   0.012   0.025  0.00  0.00    +0.160 C 
ATOM     15  C   LIG    1        0.833  -0.481   1.207  0.00  0.00    +0.080 C 
ENDBRANCH   1  14
TORSDOF 2
ENDMDL
MODEL      101
REMARK  Name = ZINC000144690868
REMARK                            x       y       z     vdW  Elec       q    Type
REMARK                         _______ _______ _______ _____ _____    ______ ____
ROOT
ATOM      1  N   LIG    1       -1.439  -0.267   0.106  0.00  0.00    -0.380 N 
ATOM      2  C   LIG    1       -2.096   0.149  -1.152  0.00  0.00    +0.250 C 
ATOM      3  C   LIG    1       -3.500  -0.455  -1.342  0.00  0.00    +0.060 C 
ATOM      4  C   LIG    1       -4.334  -0.440  -0.089  0.00  0.00    +0.030 C 
ATOM      5  C   LIG    1       -4.123  -1.775   0.668  0.00  0.00    +0.000 C 
ATOM      6  C   LIG    1       -2.833  -1.793   1.346  0.00  0.00    +0.040 C 
ATOM      7  C   LIG    1       -1.642  -1.669   0.380  0.00  0.00    +0.240 C 
ATOM      8  H   LIG    1       -1.818   0.274   0.869  0.00  0.00    +0.420 HD
ENDROOT
BRANCH   5   9
ATOM      9  C   LIG    1       -5.236  -1.946   1.704  0.00  0.00    -0.060 C 
ATOM     10  C   LIG    1       -5.194  -0.781   2.695  0.00  0.00    +0.020 C 
ATOM     11  C   LIG    1       -5.034  -3.263   2.457  0.00  0.00    +0.030 C 
ATOM     12  C   LIG    1       -6.593  -1.966   0.997  0.00  0.00    +0.030 C 
ENDBRANCH   5   9
BRANCH   1  14
ATOM     13  C   LIG    1        0.227   1.460  -0.382  0.00  0.00    +0.080 C 
ATOM     14  C   LIG    1        0.002  -0.004   0.002  0.00  0.00    +0.160 C 
ATOM     15  C   LIG    1        0.670  -0.286   1.349  0.00  0.00    +0.090 C 
ENDBRANCH   1  14
TORSDOF 2
ENDMDL
MODEL      102
REMARK  Name = ZINC001170143968
REMARK                            x       y       z     vdW  Elec       q    Type
REMARK                         _______ _______ _______ _____ _____    ______ ____
ROOT
ATOM      1  N   LIG    1        1.521  -2.683  -2.568  0.00  0.00    -0.380 N 
ATOM      2  H   LIG    1        1.082  -2.396  -3.431  0.00  0.00    +0.420 HD
ENDROOT
BRANCH   1   3
ATOM      3  C   LIG    1        1.709  -4.139  -2.575  0.00  0.00    +0.150 C 
ATOM      4  C   LIG    1        0.381  -4.856  -2.920  0.00  0.00    +0.040 C 
ATOM      5  C   LIG    1        0.862  -6.222  -3.469  0.00  0.00    +0.050 C 
ATOM      6  C   LIG    1        2.130  -5.879  -4.277  0.00  0.00    +0.000 C 
ATOM      7  C   LIG    1        3.173  -6.986  -4.110  0.00  0.00    +0.040 C 
ATOM      8  C   LIG    1        2.672  -4.554  -3.707  0.00  0.00    +0.040 C 
ENDBRANCH   1   3
BRANCH   1   9
ATOM      9  C   LIG    1        0.666  -2.304  -1.435  0.00  0.00    +0.240 C 
BRANCH   9  10
ATOM     10  C   LIG    1        0.368  -0.805  -1.500  0.00  0.00    +0.030 C 
BRANCH  10  12
ATOM     11  C   LIG    1       -0.821   1.089  -0.384  0.00  0.00    +0.030 C 
ATOM     12  C   LIG    1       -0.522  -0.411  -0.319  0.00  0.00    +0.020 C 
ENDBRANCH  10  12
ENDBRANCH   9  10
ENDBRANCH   1   9
BRANCH   1  13
ATOM     13  C   LIG    1        2.826  -2.021  -2.440  0.00  0.00    +0.240 C 
BRANCH  13  14
ATOM     14  C   LIG    1        3.488  -2.447  -1.128  0.00  0.00    +0.020 C 
ATOM     15  C   LIG    1        4.893  -1.847  -1.046  0.00  0.00    +0.060 C 
ENDBRANCH  13  14
ENDBRANCH   1  13
TORSDOF 6
ENDMDL
MODEL      103
REMARK  Name = ZINC001170148322
REMARK                            x       y       z     vdW  Elec       q    Type
REMARK                         _______ _______ _______ _____ _____    ______ ____
ROOT
ATOM      1  N   LIG    1       -1.863  -0.191   1.569  0.00  0.00    -0.380 N 
ATOM      2  H   LIG    1       -1.397  -0.316   2.455  0.00  0.00    +0.420 HD
ENDROOT
BRANCH   1   3
ATOM      3  C   LIG    1       -3.038  -1.071   1.506  0.00  0.00    +0.160 C 
ATOM      4  C   LIG    1       -2.611  -2.555   1.628  0.00  0.00    +0.040 C 
ATOM      5  C   LIG    1       -3.900  -3.240   2.146  0.00  0.00    +0.050 C 
ATOM      6  C   LIG    1       -4.501  -2.217   3.134  0.00  0.00    -0.010 C 
ATOM      7  C   LIG    1       -6.027  -2.226   3.033  0.00  0.00    +0.040 C 
ATOM      8  C   LIG    1       -3.954  -0.836   2.725  0.00  0.00    +0.050 C 
ENDBRANCH   1   3
BRANCH   1   9
ATOM      9  C   LIG    1       -2.290   1.208   1.433  0.00  0.00    +0.240 C 
ATOM     10  C   LIG    1       -3.038   1.637   2.697  0.00  0.00    +0.080 C 
ENDBRANCH   1   9
BRANCH   1  11
ATOM     11  C   LIG    1       -0.939  -0.529   0.478  0.00  0.00    +0.160 C 
BRANCH  11  13
ATOM     12  C   LIG    1       -2.737  -0.531  -1.257  0.00  0.00    +0.030 C 
ATOM     13  C   LIG    1       -1.423   0.120  -0.820  0.00  0.00    +0.050 C 
ENDBRANCH  11  13
BRANCH  11  14
ATOM     14  C   LIG    1        0.461  -0.011   0.816  0.00  0.00    +0.050 C 
ATOM     15  C   LIG    1        0.967  -0.701   2.085  0.00  0.00    +0.040 C 
ENDBRANCH  11  14
ENDBRANCH   1  11
TORSDOF 5
ENDMDL
MODEL      104
REMARK  Name = ZINC001170148325
REMARK                            x       y       z     vdW  Elec       q    Type
REMARK                         _______ _______ _______ _____ _____    ______ ____
ROOT
ATOM      1  N   LIG    1       -2.096  -0.259   1.469  0.00  0.00    -0.380 N 
ATOM      2  H   LIG    1       -1.843  -0.503   2.414  0.00  0.00    +0.420 HD
ENDROOT
BRANCH   1   3
ATOM      3  C   LIG    1       -3.244  -1.071   1.045  0.00  0.00    +0.150 C 
ATOM      4  C   LIG    1       -4.359  -1.051   2.121  0.00  0.00    +0.050 C 
ATOM      5  C   LIG    1       -5.157  -2.346   1.863  0.00  0.00    +0.050 C 
ATOM      6  C   LIG    1       -4.205  -3.312   1.137  0.00  0.00    +0.000 C 
ATOM      7  C   LIG    1       -4.009  -4.580   1.970  0.00  0.00    +0.040 C 
ATOM      8  C   LIG    1       -2.860  -2.570   0.973  0.00  0.00    +0.050 C 
ENDBRANCH   1   3
BRANCH   1   9
ATOM      9  C   LIG    1       -2.455   1.164   1.409  0.00  0.00    +0.240 C 
ATOM     10  C   LIG    1       -3.281   1.534   2.644  0.00  0.00    +0.070 C 
ENDBRANCH   1   9
BRANCH   1  11
ATOM     11  C   LIG    1       -0.959  -0.515   0.575  0.00  0.00    +0.160 C 
BRANCH  11  13
ATOM     12  C   LIG    1       -2.102  -0.990  -1.595  0.00  0.00    +0.030 C 
ATOM     13  C   LIG    1       -1.272   0.034  -0.819  0.00  0.00    +0.050 C 
ENDBRANCH  11  13
BRANCH  11  14
ATOM     14  C   LIG    1        0.289   0.177   1.127  0.00  0.00    +0.050 C 
ATOM     15  C   LIG    1        0.647  -0.426   2.487  0.00  0.00    +0.030 C 
ENDBRANCH  11  14
ENDBRANCH   1  11
TORSDOF 5
ENDMDL
MODEL      105
REMARK  Name = ZINC001170143965
REMARK                            x       y       z     vdW  Elec       q    Type
REMARK                         _______ _______ _______ _____ _____    ______ ____
ROOT
ATOM      1  N   LIG    1        1.462  -2.628  -2.579  0.00  0.00    -0.380 N 
ATOM      2  H   LIG    1        1.069  -2.255  -3.429  0.00  0.00    +0.420 HD
ENDROOT
BRANCH   1   3
ATOM      3  C   LIG    1        1.483  -4.095  -2.651  0.00  0.00    +0.160 C 
ATOM      4  C   LIG    1        2.394  -4.554  -3.808  0.00  0.00    +0.050 C 
ATOM      5  C   LIG    1        1.670  -5.792  -4.393  0.00  0.00    +0.050 C 
ATOM      6  C   LIG    1        0.177  -5.392  -4.299  0.00  0.00    -0.020 C 
ATOM      7  C   LIG    1       -0.712  -6.637  -4.277  0.00  0.00    +0.040 C 
ATOM      8  C   LIG    1        0.073  -4.628  -2.962  0.00  0.00    +0.040 C 
ENDBRANCH   1   3
BRANCH   1   9
ATOM      9  C   LIG    1        0.643  -2.206  -1.434  0.00  0.00    +0.240 C 
BRANCH   9  10
ATOM     10  C   LIG    1        0.518  -0.681  -1.431  0.00  0.00    +0.030 C 
BRANCH  10  12
ATOM     11  C   LIG    1       -0.459   1.284  -0.237  0.00  0.00    +0.030 C 
ATOM     12  C   LIG    1       -0.335  -0.241  -0.240  0.00  0.00    +0.020 C 
ENDBRANCH  10  12
ENDBRANCH   9  10
ENDBRANCH   1   9
BRANCH   1  13
ATOM     13  C   LIG    1        2.832  -2.126  -2.412  0.00  0.00    +0.240 C 
BRANCH  13  14
ATOM     14  C   LIG    1        3.444  -2.725  -1.143  0.00  0.00    +0.030 C 
ATOM     15  C   LIG    1        4.884  -2.233  -0.990  0.00  0.00    +0.060 C 
ENDBRANCH  13  14
ENDBRANCH   1  13
TORSDOF 6
ENDMDL
MODEL      106
REMARK  Name = ZINC001170156480
REMARK                            x       y       z     vdW  Elec       q    Type
REMARK                         _______ _______ _______ _____ _____    ______ ____
ROOT
ATOM      1  N   LIG    1       -1.307  -1.931  -0.172  0.00  0.00    -0.380 N 
ATOM      2  H   LIG    1       -0.761  -2.348  -0.910  0.00  0.00    +0.420 HD
ENDROOT
BRANCH   1   3
ATOM      3  C   LIG    1       -2.736  -2.121  -0.453  0.00  0.00    +0.160 C 
ATOM      4  C   LIG    1       -3.124  -1.424  -1.773  0.00  0.00    +0.040 C 
ATOM      5  C   LIG    1       -4.147  -2.339  -2.469  0.00  0.00    +0.040 C 
ATOM      6  C   LIG    1       -4.345  -3.560  -1.548  0.00  0.00    +0.000 C 
ATOM      7  C   LIG    1       -4.508  -4.836  -2.376  0.00  0.00    +0.040 C 
ATOM      8  C   LIG    1       -3.045  -3.618  -0.705  0.00  0.00    +0.050 C 
ENDBRANCH   1   3
BRANCH   1   9
ATOM      9  C   LIG    1       -1.010  -0.495  -0.094  0.00  0.00    +0.240 C 
BRANCH   9  11
ATOM     10  C   LIG    1        0.822   1.202  -0.007  0.00  0.00    +0.060 C 
ATOM     11  C   LIG    1        0.500  -0.293   0.043  0.00  0.00    +0.020 C 
ENDBRANCH   9  11
ENDBRANCH   1   9
BRANCH   1  12
ATOM     12  C   LIG    1       -0.971  -2.571   1.107  0.00  0.00    +0.250 C 
BRANCH  12  13
ATOM     13  C   LIG    1       -0.757  -4.070   0.887  0.00  0.00    -0.030 C 
ATOM     14  C   LIG    1       -0.537  -4.757   2.236  0.00  0.00    +0.070 C 
ATOM     15  C   LIG    1        0.470  -4.285  -0.001  0.00  0.00    +0.030 C 
ENDBRANCH  12  13
ENDBRANCH   1  12
TORSDOF 5
ENDMDL
MODEL      107
REMARK  Name = ZINC001170156479
REMARK                            x       y       z     vdW  Elec       q    Type
REMARK                         _______ _______ _______ _____ _____    ______ ____
ROOT
ATOM      1  N   LIG    1       -1.238  -1.960  -0.137  0.00  0.00    -0.380 N 
ATOM      2  H   LIG    1       -0.687  -2.363  -0.879  0.00  0.00    +0.420 HD
ENDROOT
BRANCH   1   3
ATOM      3  C   LIG    1       -2.666  -2.154  -0.426  0.00  0.00    +0.160 C 
ATOM      4  C   LIG    1       -2.941  -3.635  -0.757  0.00  0.00    +0.040 C 
ATOM      5  C   LIG    1       -4.014  -3.582  -1.873  0.00  0.00    +0.050 C 
ATOM      6  C   LIG    1       -3.571  -2.361  -2.716  0.00  0.00    -0.020 C 
ATOM      7  C   LIG    1       -4.756  -1.788  -3.495  0.00  0.00    +0.040 C 
ATOM      8  C   LIG    1       -3.066  -1.343  -1.670  0.00  0.00    +0.040 C 
ENDBRANCH   1   3
BRANCH   1   9
ATOM      9  C   LIG    1       -0.950  -0.524  -0.036  0.00  0.00    +0.240 C 
BRANCH   9  11
ATOM     10  C   LIG    1        0.873   1.182   0.074  0.00  0.00    +0.060 C 
ATOM     11  C   LIG    1        0.559  -0.316   0.109  0.00  0.00    +0.020 C 
ENDBRANCH   9  11
ENDBRANCH   1   9
BRANCH   1  12
ATOM     12  C   LIG    1       -0.903  -2.618   1.134  0.00  0.00    +0.250 C 
BRANCH  12  13
ATOM     13  C   LIG    1       -0.833  -4.131   0.922  0.00  0.00    -0.030 C 
ATOM     14  C   LIG    1       -0.550  -4.821   2.258  0.00  0.00    +0.070 C 
ATOM     15  C   LIG    1        0.287  -4.457  -0.068  0.00  0.00    +0.030 C 
ENDBRANCH  12  13
ENDBRANCH   1  12
TORSDOF 5
ENDMDL
MODEL      108
REMARK  Name = ZINC001170156481
REMARK                            x       y       z     vdW  Elec       q    Type
REMARK                         _______ _______ _______ _____ _____    ______ ____
ROOT
ATOM      1  N   LIG    1       -1.293  -1.948  -0.173  0.00  0.00    -0.380 N 
ATOM      2  H   LIG    1       -0.698  -2.357  -0.878  0.00  0.00    +0.420 HD
ENDROOT
BRANCH   1   3
ATOM      3  C   LIG    1       -2.694  -2.283  -0.462  0.00  0.00    +0.150 C 
ATOM      4  C   LIG    1       -2.843  -3.792  -0.780  0.00  0.00    +0.050 C 
ATOM      5  C   LIG    1       -4.133  -3.875  -1.622  0.00  0.00    +0.050 C 
ATOM      6  C   LIG    1       -4.335  -2.487  -2.255  0.00  0.00    +0.000 C 
ATOM      7  C   LIG    1       -4.317  -2.599  -3.781  0.00  0.00    +0.040 C 
ATOM      8  C   LIG    1       -3.162  -1.605  -1.773  0.00  0.00    +0.050 C 
ENDBRANCH   1   3
BRANCH   1   9
ATOM      9  C   LIG    1       -1.127  -0.488  -0.180  0.00  0.00    +0.240 C 
BRANCH   9  11
ATOM     10  C   LIG    1        0.543   1.369  -0.167  0.00  0.00    +0.060 C 
ATOM     11  C   LIG    1        0.355  -0.143  -0.028  0.00  0.00    +0.020 C 
ENDBRANCH   9  11
ENDBRANCH   1   9
BRANCH   1  12
ATOM     12  C   LIG    1       -0.925  -2.477   1.147  0.00  0.00    +0.250 C 
BRANCH  12  13
ATOM     13  C   LIG    1       -0.596  -3.966   1.026  0.00  0.00    -0.030 C 
ATOM     14  C   LIG    1       -0.329  -4.543   2.418  0.00  0.00    +0.070 C 
ATOM     15  C   LIG    1        0.647  -4.144   0.153  0.00  0.00    +0.030 C 
ENDBRANCH  12  13
ENDBRANCH   1  12
TORSDOF 5
ENDMDL
MODEL      109
REMARK  Name = ZINC001170156482
REMARK                            x       y       z     vdW  Elec       q    Type
REMARK                         _______ _______ _______ _____ _____    ______ ____
ROOT
ATOM      1  N   LIG    1       -1.197  -1.945  -0.141  0.00  0.00    -0.380 N 
ATOM      2  H   LIG    1       -0.648  -2.353  -0.883  0.00  0.00    +0.420 HD
ENDROOT
BRANCH   1   3
ATOM      3  C   LIG    1       -2.625  -2.067  -0.464  0.00  0.00    +0.160 C 
ATOM      4  C   LIG    1       -2.956  -1.288  -1.761  0.00  0.00    +0.050 C 
ATOM      5  C   LIG    1       -4.242  -1.990  -2.264  0.00  0.00    +0.050 C 
ATOM      6  C   LIG    1       -4.007  -3.482  -1.946  0.00  0.00    -0.010 C 
ATOM      7  C   LIG    1       -5.317  -4.135  -1.503  0.00  0.00    +0.040 C 
ATOM      8  C   LIG    1       -2.980  -3.531  -0.798  0.00  0.00    +0.040 C 
ENDBRANCH   1   3
BRANCH   1   9
ATOM      9  C   LIG    1       -0.848  -0.526   0.004  0.00  0.00    +0.250 C 
BRANCH   9  11
ATOM     10  C   LIG    1        1.045   1.090   0.223  0.00  0.00    +0.060 C 
ATOM     11  C   LIG    1        0.662  -0.391   0.210  0.00  0.00    +0.020 C 
ENDBRANCH   9  11
ENDBRANCH   1   9
BRANCH   1  12
ATOM     12  C   LIG    1       -0.918  -2.650   1.118  0.00  0.00    +0.250 C 
BRANCH  12  13
ATOM     13  C   LIG    1       -0.894  -4.158   0.863  0.00  0.00    -0.030 C 
ATOM     14  C   LIG    1       -0.627  -4.893   2.179  0.00  0.00    +0.070 C 
ATOM     15  C   LIG    1        0.212  -4.489  -0.140  0.00  0.00    +0.040 C 
ENDBRANCH  12  13
ENDBRANCH   1  12
TORSDOF 5
ENDMDL
MODEL      110
REMARK  Name = ZINC000682028090
REMARK                            x       y       z     vdW  Elec       q    Type
REMARK                         _______ _______ _______ _____ _____    ______ ____
ROOT
ATOM      1  N   LIG    1       -1.363  -0.610  -0.037  0.00  0.00    -0.350 N 
ATOM      2  H   LIG    1       -1.879  -0.218   0.737  0.00  0.00    +0.420 HD
ENDROOT
BRANCH   1   4
ATOM      3  C   LIG    1        0.682  -0.517   1.307  0.00  0.00    +0.080 C 
ATOM      4  C   LIG    1        0.017  -0.108  -0.009  0.00  0.00    +0.160 C 
ATOM      5  C   LIG    1        0.800  -0.702  -1.182  0.00  0.00    +0.080 C 
ENDBRANCH   1   4
BRANCH   1   6
ATOM      6  C   LIG    1       -1.354  -2.074   0.072  0.00  0.00    +0.090 C 
ATOM      7  C   LIG    1       -1.903  -2.691   1.360  0.00  0.00    +0.100 C 
ATOM      8  C   LIG    1       -2.705  -2.792   0.061  0.00  0.00    +0.100 C 
ENDBRANCH   1   6
BRANCH   1   9
ATOM      9  C   LIG    1       -2.002  -0.216  -1.300  0.00  0.00    +0.250 C 
BRANCH   9  10
ATOM     10  C   LIG    1       -2.127   1.308  -1.355  0.00  0.00    +0.030 C 
BRANCH  10  11
ATOM     11  C   LIG    1       -2.706   1.723  -2.709  0.00  0.00    +0.030 C 
BRANCH  11  12
ATOM     12  C   LIG    1       -2.831   3.247  -2.764  0.00  0.00    -0.070 C 
ATOM     13  C   LIG    1       -3.759   3.723  -1.645  0.00  0.00    +0.020 C 
ATOM     14  C   LIG    1       -3.410   3.663  -4.118  0.00  0.00    +0.030 C 
ATOM     15  C   LIG    1       -1.450   3.880  -2.584  0.00  0.00    +0.020 C 
ENDBRANCH  11  12
ENDBRANCH  10  11
ENDBRANCH   9  10
ENDBRANCH   1   9
TORSDOF 6
ENDMDL
MODEL      111
REMARK  Name = ZINC000682028574
REMARK                            x       y       z     vdW  Elec       q    Type
REMARK                         _______ _______ _______ _____ _____    ______ ____
ROOT
ATOM      1  N   LIG    1        0.723  -0.482   1.068  0.00  0.00    -0.380 N 
ATOM      2  H   LIG    1        0.232  -0.126   0.262  0.00  0.00    +0.420 HD
ENDROOT
BRANCH   1   4
ATOM      3  C   LIG    1       -0.731  -2.446   0.918  0.00  0.00    +0.080 C 
ATOM      4  C   LIG    1        0.711  -1.950   1.041  0.00  0.00    +0.250 C 
ENDBRANCH   1   4
BRANCH   1   5
ATOM      5  C   LIG    1        2.112  -0.003   1.046  0.00  0.00    +0.280 C 
BRANCH   5   6
ATOM      6  C   LIG    1        2.763  -0.389  -0.284  0.00  0.00    -0.090 C 
ATOM      7  C   LIG    1        3.207   0.747  -1.209  0.00  0.00    +0.050 C 
ATOM      8  C   LIG    1        4.251  -0.081  -0.458  0.00  0.00    +0.070 C 
ENDBRANCH   5   6
ENDBRANCH   1   5
BRANCH   1   9
ATOM      9  C   LIG    1        0.062  -0.009   2.292  0.00  0.00    +0.250 C 
BRANCH   9  10
ATOM     10  C   LIG    1       -0.054   1.516   2.253  0.00  0.00    +0.030 C 
BRANCH  10  11
ATOM     11  C   LIG    1       -0.862   1.997   3.460  0.00  0.00    +0.030 C 
BRANCH  11  12
ATOM     12  C   LIG    1       -0.978   3.522   3.420  0.00  0.00    -0.070 C 
ATOM     13  C   LIG    1        0.420   4.141   3.463  0.00  0.00    +0.020 C 
ATOM     14  C   LIG    1       -1.786   4.003   4.627  0.00  0.00    +0.030 C 
ATOM     15  C   LIG    1       -1.685   3.947   2.131  0.00  0.00    +0.020 C 
ENDBRANCH  11  12
ENDBRANCH  10  11
ENDBRANCH   9  10
ENDBRANCH   1   9
TORSDOF 7
ENDMDL
MODEL      112
REMARK  Name = ZINC000682027866
REMARK                            x       y       z     vdW  Elec       q    Type
REMARK                         _______ _______ _______ _____ _____    ______ ____
ROOT
ATOM      1  N   LIG    1        0.713  -0.491   1.192  0.00  0.00    -0.380 N 
ATOM      2  C   LIG    1        0.733  -1.960   1.184  0.00  0.00    +0.310 C 
ATOM      3  H   LIG    1        0.240  -0.165   2.022  0.00  0.00    +0.420 HD
ENDROOT
BRANCH   1   5
ATOM      4  C   LIG    1       -0.019   1.526   0.010  0.00  0.00    +0.090 C 
ATOM      5  C   LIG    1        0.002  -0.004   0.002  0.00  0.00    +0.200 C 
BRANCH   5   6
ATOM      6  C   LIG    1       -1.433  -0.534   0.013  0.00  0.00    -0.080 C 
ATOM      7  C   LIG    1       -2.564   0.492   0.115  0.00  0.00    +0.050 C 
ATOM      8  C   LIG    1       -2.306  -0.234  -1.207  0.00  0.00    +0.070 C 
ENDBRANCH   5   6
ENDBRANCH   1   5
BRANCH   1   9
ATOM      9  C   LIG    1        2.091   0.018   1.182  0.00  0.00    +0.240 C 
BRANCH   9  10
ATOM     10  C   LIG    1        2.793  -0.385   2.480  0.00  0.00    +0.030 C 
BRANCH  10  11
ATOM     11  C   LIG    1        4.228   0.145   2.469  0.00  0.00    +0.030 C 
BRANCH  11  12
ATOM     12  C   LIG    1        4.930  -0.258   3.768  0.00  0.00    -0.070 C 
ATOM     13  C   LIG    1        4.176   0.336   4.960  0.00  0.00    +0.020 C 
ATOM     14  C   LIG    1        6.365   0.272   3.757  0.00  0.00    +0.030 C 
ATOM     15  C   LIG    1        4.950  -1.783   3.885  0.00  0.00    +0.020 C 
ENDBRANCH  11  12
ENDBRANCH  10  11
ENDBRANCH   9  10
ENDBRANCH   1   9
TORSDOF 6
ENDMDL
MODEL      113
REMARK  Name = ZINC000682027084
REMARK                            x       y       z     vdW  Elec       q    Type
REMARK                         _______ _______ _______ _____ _____    ______ ____
ROOT
ATOM      1  C   LIG    1       -0.018   1.465   0.010  0.00  0.00    +0.310 C 
ATOM      2  N   LIG    1        0.002  -0.004   0.002  0.00  0.00    -0.380 N 
ATOM      3  H   LIG    1        0.474  -0.330  -0.828  0.00  0.00    +0.420 HD
ENDROOT
BRANCH   2   4
ATOM      4  C   LIG    1       -1.376  -0.512   0.012  0.00  0.00    +0.160 C 
ATOM      5  C   LIG    1       -2.108  -0.123  -1.296  0.00  0.00    +0.050 C 
ATOM      6  C   LIG    1       -3.227  -1.189  -1.392  0.00  0.00    +0.050 C 
ATOM      7  C   LIG    1       -2.559  -2.485  -0.889  0.00  0.00    +0.030 C 
ATOM      8  C   LIG    1       -1.383  -2.055   0.004  0.00  0.00    +0.030 C 
ENDBRANCH   2   4
BRANCH   2   9
ATOM      9  C   LIG    1        0.713  -0.491   1.192  0.00  0.00    +0.250 C 
BRANCH   9  10
ATOM     10  C   LIG    1        2.180  -0.066   1.119  0.00  0.00    +0.030 C 
BRANCH  10  11
ATOM     11  C   LIG    1        2.921  -0.572   2.359  0.00  0.00    +0.030 C 
BRANCH  11  12
ATOM     12  C   LIG    1        4.388  -0.147   2.286  0.00  0.00    -0.070 C 
ATOM     13  C   LIG    1        5.030  -0.742   1.030  0.00  0.00    +0.020 C 
ATOM     14  C   LIG    1        5.128  -0.654   3.525  0.00  0.00    +0.030 C 
ATOM     15  C   LIG    1        4.475   1.379   2.228  0.00  0.00    +0.020 C 
ENDBRANCH  11  12
ENDBRANCH  10  11
ENDBRANCH   9  10
ENDBRANCH   2   9
TORSDOF 5
ENDMDL
MODEL      114
REMARK  Name = ZINC000682027867
REMARK                            x       y       z     vdW  Elec       q    Type
REMARK                         _______ _______ _______ _____ _____    ______ ____
ROOT
ATOM      1  N   LIG    1       -1.376  -0.512   0.012  0.00  0.00    -0.380 N 
ATOM      2  C   LIG    1       -2.087  -0.026  -1.178  0.00  0.00    +0.320 C 
ATOM      3  H   LIG    1       -1.848  -0.187   0.843  0.00  0.00    +0.420 HD
ENDROOT
BRANCH   1   5
ATOM      4  C   LIG    1       -0.019   1.526   0.010  0.00  0.00    +0.090 C 
ATOM      5  C   LIG    1        0.002  -0.004   0.002  0.00  0.00    +0.190 C 
BRANCH   5   6
ATOM      6  C   LIG    1        0.742  -0.511   1.242  0.00  0.00    -0.090 C 
ATOM      7  C   LIG    1        1.864  -1.529   1.028  0.00  0.00    +0.050 C 
ATOM      8  C   LIG    1        2.202  -0.088   1.415  0.00  0.00    +0.070 C 
ENDBRANCH   5   6
ENDBRANCH   1   5
BRANCH   1   9
ATOM      9  C   LIG    1       -1.356  -1.981   0.004  0.00  0.00    +0.250 C 
BRANCH   9  10
ATOM     10  C   LIG    1       -2.785  -2.512   0.141  0.00  0.00    +0.030 C 
BRANCH  10  11
ATOM     11  C   LIG    1       -2.764  -4.041   0.133  0.00  0.00    +0.030 C 
BRANCH  11  12
ATOM     12  C   LIG    1       -4.193  -4.572   0.269  0.00  0.00    -0.070 C 
ATOM     13  C   LIG    1       -4.797  -4.077   1.585  0.00  0.00    +0.020 C 
ATOM     14  C   LIG    1       -4.172  -6.101   0.261  0.00  0.00    +0.030 C 
ATOM     15  C   LIG    1       -5.038  -4.066  -0.902  0.00  0.00    +0.020 C 
ENDBRANCH  11  12
ENDBRANCH  10  11
ENDBRANCH   9  10
ENDBRANCH   1   9
TORSDOF 6
ENDMDL
MODEL      115
REMARK  Name = ZINC000682029158
REMARK                            x       y       z     vdW  Elec       q    Type
REMARK                         _______ _______ _______ _____ _____    ______ ____
ROOT
ATOM      1  C   LIG    1       -0.018   1.465   0.010  0.00  0.00    +0.300 C 
ATOM      2  N   LIG    1        0.002  -0.004   0.002  0.00  0.00    -0.390 N 
ATOM      3  H   LIG    1        0.474  -0.330  -0.828  0.00  0.00    +0.420 HD
ENDROOT
BRANCH   2   4
ATOM      4  C   LIG    1       -1.376  -0.512   0.012  0.00  0.00    +0.250 C 
BRANCH   4   5
ATOM      5  C   LIG    1       -2.078  -0.110  -1.286  0.00  0.00    +0.060 C 
BRANCH   5   6
ATOM      6  C   LIG    1       -3.513  -0.640  -1.275  0.00  0.00    -0.060 C 
ATOM      7  C   LIG    1       -4.646   0.389  -1.292  0.00  0.00    +0.030 C 
ATOM      8  C   LIG    1       -4.349  -0.442  -2.542  0.00  0.00    +0.030 C 
ENDBRANCH   5   6
ENDBRANCH   4   5
ENDBRANCH   2   4
BRANCH   2   9
ATOM      9  C   LIG    1        0.713  -0.491   1.192  0.00  0.00    +0.250 C 
BRANCH   9  10
ATOM     10  C   LIG    1        2.180  -0.066   1.119  0.00  0.00    +0.020 C 
BRANCH  10  11
ATOM     11  C   LIG    1        2.921  -0.572   2.359  0.00  0.00    +0.030 C 
BRANCH  11  12
ATOM     12  C   LIG    1        4.388  -0.147   2.286  0.00  0.00    -0.070 C 
ATOM     13  C   LIG    1        5.030  -0.742   1.030  0.00  0.00    +0.020 C 
ATOM     14  C   LIG    1        5.128  -0.654   3.525  0.00  0.00    +0.030 C 
ATOM     15  C   LIG    1        4.475   1.379   2.228  0.00  0.00    +0.020 C 
ENDBRANCH  11  12
ENDBRANCH  10  11
ENDBRANCH   9  10
ENDBRANCH   2   9
TORSDOF 7
ENDMDL
MODEL      116
REMARK  Name = ZINC000682028238
REMARK                            x       y       z     vdW  Elec       q    Type
REMARK                         _______ _______ _______ _____ _____    ______ ____
ROOT
ATOM      1  N   LIG    1       -1.422  -0.619   0.008  0.00  0.00    -0.380 N 
ATOM      2  H   LIG    1       -1.989  -0.164   0.708  0.00  0.00    +0.420 HD
ENDROOT
BRANCH   1   3
ATOM      3  C   LIG    1       -1.428  -2.070   0.240  0.00  0.00    +0.150 C 
ATOM      4  C   LIG    1       -1.410  -2.455   1.729  0.00  0.00    +0.050 C 
ATOM      5  C   LIG    1       -2.410  -3.568   1.372  0.00  0.00    +0.060 C 
ATOM      6  C   LIG    1       -2.830  -2.698   0.175  0.00  0.00    +0.050 C 
ENDBRANCH   1   3
BRANCH   1   8
ATOM      7  C   LIG    1        0.479  -0.293   1.517  0.00  0.00    +0.080 C 
ATOM      8  C   LIG    1       -0.045  -0.116   0.091  0.00  0.00    +0.250 C 
ENDBRANCH   1   8
BRANCH   1   9
ATOM      9  C   LIG    1       -1.968  -0.335  -1.325  0.00  0.00    +0.250 C 
BRANCH   9  10
ATOM     10  C   LIG    1       -2.097   1.179  -1.512  0.00  0.00    +0.030 C 
BRANCH  10  11
ATOM     11  C   LIG    1       -2.643   1.476  -2.909  0.00  0.00    +0.030 C 
BRANCH  11  12
ATOM     12  C   LIG    1       -2.772   2.989  -3.096  0.00  0.00    -0.070 C 
ATOM     13  C   LIG    1       -3.728   3.553  -2.043  0.00  0.00    +0.020 C 
ATOM     14  C   LIG    1       -3.318   3.286  -4.494  0.00  0.00    +0.030 C 
ATOM     15  C   LIG    1       -1.397   3.641  -2.937  0.00  0.00    +0.020 C 
ENDBRANCH  11  12
ENDBRANCH  10  11
ENDBRANCH   9  10
ENDBRANCH   1   9
TORSDOF 6
ENDMDL
MODEL      117
REMARK  Name = ZINC000682070696
REMARK                            x       y       z     vdW  Elec       q    Type
REMARK                         _______ _______ _______ _____ _____    ______ ____
ROOT
ATOM      1  C   LIG    1        0.750  -0.703   3.575  0.00  0.00    +0.170 C 
ATOM      2  C   LIG    1        2.010   0.158   3.674  0.00  0.00    +0.080 C 
ENDROOT
BRANCH   1   3
ATOM      3  C   LIG    1       -0.068  -0.561   4.860  0.00  0.00    -0.010 C 
ATOM      4  C   LIG    1        0.769  -1.031   6.051  0.00  0.00    +0.040 C 
ATOM      5  C   LIG    1       -0.048  -0.888   7.337  0.00  0.00    +0.020 C 
ATOM      6  C   LIG    1       -0.437   0.578   7.534  0.00  0.00    +0.010 C 
ATOM      7  C   LIG    1       -1.274   1.048   6.342  0.00  0.00    +0.020 C 
ATOM      8  C   LIG    1       -0.457   0.906   5.057  0.00  0.00    +0.000 C 
ENDBRANCH   1   3
BRANCH   1   9
ATOM      9  N   LIG    1       -0.057  -0.261   2.429  0.00  0.00    -0.390 N 
ATOM     10  C   LIG    1       -1.283  -1.067   2.354  0.00  0.00    +0.320 C 
ATOM     11  H   LIG    1       -0.300   0.712   2.545  0.00  0.00    +0.420 HD
BRANCH   9  12
ATOM     12  C   LIG    1        0.716  -0.428   1.192  0.00  0.00    +0.250 C 
BRANCH  12  14
ATOM     13  C   LIG    1       -0.228   1.659   0.194  0.00  0.00    +0.030 C 
ATOM     14  C   LIG    1       -0.074   0.147   0.015  0.00  0.00    -0.030 C 
ATOM     15  C   LIG    1        0.673  -0.138  -1.290  0.00  0.00    +0.070 C 
ENDBRANCH  12  14
ENDBRANCH   9  12
ENDBRANCH   1   9
TORSDOF 4
ENDMDL
MODEL      118
REMARK  Name = ZINC000682070695
REMARK                            x       y       z     vdW  Elec       q    Type
REMARK                         _______ _______ _______ _____ _____    ______ ____
ROOT
ATOM      1  C   LIG    1        0.700  -0.626   3.637  0.00  0.00    +0.170 C 
ATOM      2  C   LIG    1       -0.044  -0.548   4.972  0.00  0.00    +0.080 C 
ENDROOT
BRANCH   1   3
ATOM      3  C   LIG    1        2.044   0.096   3.760  0.00  0.00    -0.020 C 
ATOM      4  C   LIG    1        1.804   1.559   4.137  0.00  0.00    +0.000 C 
ATOM      5  C   LIG    1        3.147   2.281   4.260  0.00  0.00    +0.020 C 
ATOM      6  C   LIG    1        3.991   1.607   5.343  0.00  0.00    +0.010 C 
ATOM      7  C   LIG    1        4.231   0.144   4.966  0.00  0.00    +0.020 C 
ATOM      8  C   LIG    1        2.888  -0.578   4.843  0.00  0.00    +0.040 C 
ENDBRANCH   1   3
BRANCH   1   9
ATOM      9  N   LIG    1       -0.105   0.014   2.589  0.00  0.00    -0.390 N 
ATOM     10  C   LIG    1       -1.433  -0.612   2.541  0.00  0.00    +0.310 C 
ATOM     11  H   LIG    1       -0.204   0.997   2.793  0.00  0.00    +0.420 HD
BRANCH   9  12
ATOM     12  C   LIG    1        0.561  -0.151   1.290  0.00  0.00    +0.250 C 
BRANCH  12  14
ATOM     13  C   LIG    1       -0.116   2.132   0.533  0.00  0.00    +0.030 C 
ATOM     14  C   LIG    1       -0.201   0.636   0.222  0.00  0.00    -0.030 C 
ATOM     15  C   LIG    1        0.418   0.365  -1.151  0.00  0.00    +0.070 C 
ENDBRANCH  12  14
ENDBRANCH   9  12
ENDBRANCH   1   9
TORSDOF 4
ENDMDL
MODEL      119
REMARK  Name = ZINC000112963692
REMARK                            x       y       z     vdW  Elec       q    Type
REMARK                         _______ _______ _______ _____ _____    ______ ____
ROOT
ATOM      1  N   LIG    1        2.117  -4.627  -3.884  0.00  0.00    -0.390 N 
ATOM      2  H   LIG    1        1.869  -4.313  -4.811  0.00  0.00    +0.420 HD
ENDROOT
BRANCH   1   3
ATOM      3  C   LIG    1        3.513  -4.267  -3.603  0.00  0.00    +0.240 C 
ATOM      4  C   LIG    1        4.413  -4.801  -4.719  0.00  0.00    +0.080 C 
ENDBRANCH   1   3
BRANCH   1   5
ATOM      5  C   LIG    1        1.238  -3.985  -2.898  0.00  0.00    +0.250 C 
BRANCH   5   6
ATOM      6  C   LIG    1        1.306  -2.466  -3.066  0.00  0.00    +0.030 C 
BRANCH   6   7
ATOM      7  C   LIG    1        0.390  -1.798  -2.039  0.00  0.00    +0.020 C 
BRANCH   7   8
ATOM      8  C   LIG    1        0.458  -0.278  -2.207  0.00  0.00    +0.020 C 
BRANCH   8  10
ATOM      9  C   LIG    1       -0.389   1.909  -1.348  0.00  0.00    +0.020 C 
ATOM     10  C   LIG    1       -0.458   0.390  -1.180  0.00  0.00    -0.010 C 
ENDBRANCH   8  10
ENDBRANCH   7   8
ENDBRANCH   6   7
ENDBRANCH   5   6
ENDBRANCH   1   5
BRANCH   1  11
ATOM     11  C   LIG    1        1.961  -6.085  -3.804  0.00  0.00    +0.250 C 
BRANCH  11  12
ATOM     12  C   LIG    1        0.541  -6.471  -4.224  0.00  0.00    +0.030 C 
BRANCH  12  13
ATOM     13  C   LIG    1        0.413  -7.995  -4.250  0.00  0.00    +0.020 C 
ATOM     14  C   LIG    1       -1.006  -8.380  -4.671  0.00  0.00    +0.030 C 
ENDBRANCH  12  13
ENDBRANCH  11  12
ENDBRANCH   1  11
TORSDOF 9
ENDMDL
MODEL      120
REMARK  Name = ZINC000682150599
REMARK                            x       y       z     vdW  Elec       q    Type
REMARK                         _______ _______ _______ _____ _____    ______ ____
ROOT
ATOM      1  N   LIG    1       -2.732  -4.022  -0.231  0.00  0.00    -0.380 N 
ATOM      2  H   LIG    1       -2.110  -4.566   0.348  0.00  0.00    +0.420 HD
ENDROOT
BRANCH   1   3
ATOM      3  C   LIG    1       -2.233  -4.015  -1.613  0.00  0.00    +0.160 C 
ATOM      4  C   LIG    1       -3.189  -3.211  -2.496  0.00  0.00    +0.080 C 
ATOM      5  C   LIG    1       -2.146  -5.451  -2.132  0.00  0.00    +0.080 C 
ENDBRANCH   1   3
BRANCH   1   6
ATOM      6  C   LIG    1       -2.793  -2.645   0.275  0.00  0.00    +0.240 C 
BRANCH   6   7
ATOM      7  C   LIG    1       -1.376  -2.079   0.386  0.00  0.00    +0.030 C 
BRANCH   7   8
ATOM      8  C   LIG    1       -1.445  -0.615   0.825  0.00  0.00    +0.030 C 
BRANCH   8  10
ATOM      9  C   LIG    1       -0.099   1.446   1.253  0.00  0.00    +0.030 C 
ATOM     10  C   LIG    1       -0.028  -0.049   0.937  0.00  0.00    -0.030 C 
ATOM     11  C   LIG    1        0.724  -0.772   2.056  0.00  0.00    +0.020 C 
ENDBRANCH   8  10
ENDBRANCH   7   8
ENDBRANCH   6   7
ENDBRANCH   1   6
BRANCH   1  12
ATOM     12  C   LIG    1       -4.075  -4.616  -0.199  0.00  0.00    +0.290 C 
BRANCH  12  13
ATOM     13  C   LIG    1       -3.959  -6.142  -0.217  0.00  0.00    -0.090 C 
ATOM     14  C   LIG    1       -4.509  -6.906   0.988  0.00  0.00    +0.040 C 
ATOM     15  C   LIG    1       -5.253  -6.947  -0.348  0.00  0.00    +0.070 C 
ENDBRANCH  12  13
ENDBRANCH   1  12
TORSDOF 7
ENDMDL
MODEL      121
REMARK  Name = ZINC000682155786
REMARK                            x       y       z     vdW  Elec       q    Type
REMARK                         _______ _______ _______ _____ _____    ______ ____
ROOT
ATOM      1  N   LIG    1       -2.871  -4.038  -0.025  0.00  0.00    -0.380 N 
ATOM      2  C   LIG    1       -2.419  -4.414   1.321  0.00  0.00    +0.310 C 
ATOM      3  H   LIG    1       -2.242  -4.426  -0.712  0.00  0.00    +0.420 HD
ENDROOT
BRANCH   1   4
ATOM      4  C   LIG    1       -4.225  -4.559  -0.251  0.00  0.00    +0.210 C 
ATOM      5  C   LIG    1       -5.155  -4.059   0.856  0.00  0.00    +0.090 C 
BRANCH   4   6
ATOM      6  C   LIG    1       -4.191  -6.089  -0.237  0.00  0.00    -0.180 C 
ATOM      7  C   LIG    1       -4.758  -6.797   0.996  0.00  0.00    +0.050 C 
ATOM      8  C   LIG    1       -2.986  -6.729  -0.928  0.00  0.00    +0.090 C 
ATOM      9  C   LIG    1       -5.529  -6.826  -0.325  0.00  0.00    +0.080 C 
ENDBRANCH   4   6
ENDBRANCH   1   4
BRANCH   1  10
ATOM     10  C   LIG    1       -2.883  -2.574  -0.146  0.00  0.00    +0.250 C 
BRANCH  10  11
ATOM     11  C   LIG    1       -1.451  -2.042  -0.057  0.00  0.00    +0.030 C 
BRANCH  11  12
ATOM     12  C   LIG    1       -1.464  -0.517  -0.182  0.00  0.00    +0.030 C 
BRANCH  12  14
ATOM     13  C   LIG    1       -0.032   1.524  -0.344  0.00  0.00    +0.030 C 
ATOM     14  C   LIG    1       -0.033   0.014  -0.094  0.00  0.00    -0.030 C 
ATOM     15  C   LIG    1        0.533  -0.273   1.299  0.00  0.00    +0.020 C 
ENDBRANCH  12  14
ENDBRANCH  11  12
ENDBRANCH  10  11
ENDBRANCH   1  10
TORSDOF 6
ENDMDL
MODEL      122
REMARK  Name = ZINC000682155787
REMARK                            x       y       z     vdW  Elec       q    Type
REMARK                         _______ _______ _______ _____ _____    ______ ____
ROOT
ATOM      1  N   LIG    1       -2.834  -4.051  -0.239  0.00  0.00    -0.380 N 
ATOM      2  C   LIG    1       -2.194  -4.639   0.945  0.00  0.00    +0.310 C 
ATOM      3  H   LIG    1       -2.316  -4.309  -1.065  0.00  0.00    +0.420 HD
ENDROOT
BRANCH   1   4
ATOM      4  C   LIG    1       -4.212  -4.548  -0.349  0.00  0.00    +0.210 C 
ATOM      5  C   LIG    1       -4.879  -3.936  -1.582  0.00  0.00    +0.090 C 
BRANCH   4   6
ATOM      6  C   LIG    1       -4.194  -6.072  -0.483  0.00  0.00    -0.180 C 
ATOM      7  C   LIG    1       -4.740  -6.891   0.689  0.00  0.00    +0.050 C 
ATOM      8  C   LIG    1       -3.011  -6.653  -1.260  0.00  0.00    +0.080 C 
ATOM      9  C   LIG    1       -5.542  -6.786  -0.611  0.00  0.00    +0.080 C 
ENDBRANCH   4   6
ENDBRANCH   1   4
BRANCH   1  10
ATOM     10  C   LIG    1       -2.851  -2.587  -0.110  0.00  0.00    +0.240 C 
BRANCH  10  11
ATOM     11  C   LIG    1       -1.416  -2.058  -0.121  0.00  0.00    +0.030 C 
BRANCH  11  12
ATOM     12  C   LIG    1       -1.433  -0.534   0.013  0.00  0.00    +0.030 C 
BRANCH  12  14
ATOM     13  C   LIG    1       -0.019   1.526   0.010  0.00  0.00    +0.030 C 
ATOM     14  C   LIG    1        0.002  -0.004   0.002  0.00  0.00    -0.030 C 
ATOM     15  C   LIG    1        0.742  -0.511   1.242  0.00  0.00    +0.020 C 
ENDBRANCH  12  14
ENDBRANCH  11  12
ENDBRANCH  10  11
ENDBRANCH   1  10
TORSDOF 6
ENDMDL
MODEL      123
REMARK  Name = ZINC000682157324
REMARK                            x       y       z     vdW  Elec       q    Type
REMARK                         _______ _______ _______ _____ _____    ______ ____
ROOT
ATOM      1  N   LIG    1       -2.408  -3.945  -0.426  0.00  0.00    -0.380 N 
ATOM      2  H   LIG    1       -1.607  -4.111  -1.017  0.00  0.00    +0.420 HD
ENDROOT
BRANCH   1   3
ATOM      3  C   LIG    1       -3.623  -4.413  -1.106  0.00  0.00    +0.150 C 
ATOM      4  C   LIG    1       -3.693  -4.011  -2.589  0.00  0.00    +0.050 C 
ATOM      5  C   LIG    1       -4.267  -5.412  -2.860  0.00  0.00    +0.050 C 
ATOM      6  C   LIG    1       -3.538  -5.871  -1.587  0.00  0.00    +0.060 C 
ENDBRANCH   1   3
BRANCH   1   7
ATOM      7  C   LIG    1       -2.243  -4.674   0.838  0.00  0.00    +0.160 C 
ATOM      8  C   LIG    1       -1.975  -6.152   0.544  0.00  0.00    +0.080 C 
ATOM      9  C   LIG    1       -3.519  -4.543   1.673  0.00  0.00    +0.080 C 
ENDBRANCH   1   7
BRANCH   1  10
ATOM     10  C   LIG    1       -2.524  -2.507  -0.151  0.00  0.00    +0.250 C 
BRANCH  10  11
ATOM     11  C   LIG    1       -1.228  -2.004   0.488  0.00  0.00    +0.020 C 
BRANCH  11  12
ATOM     12  C   LIG    1       -1.299  -0.485   0.658  0.00  0.00    +0.030 C 
BRANCH  12  14
ATOM     13  C   LIG    1       -0.021   1.547   1.353  0.00  0.00    +0.030 C 
ATOM     14  C   LIG    1       -0.003   0.018   1.297  0.00  0.00    -0.030 C 
ATOM     15  C   LIG    1        0.117  -0.543   2.716  0.00  0.00    +0.020 C 
ENDBRANCH  12  14
ENDBRANCH  11  12
ENDBRANCH  10  11
ENDBRANCH   1  10
TORSDOF 6
ENDMDL
MODEL      124
REMARK  Name = ZINC000613423289
REMARK                            x       y       z     vdW  Elec       q    Type
REMARK                         _______ _______ _______ _____ _____    ______ ____
ROOT
ATOM      1  N   LIG    1       -1.471  -1.451  -1.329  0.00  0.00    -0.380 N 
ATOM      2  H   LIG    1       -2.180  -1.164  -0.671  0.00  0.00    +0.420 HD
ENDROOT
BRANCH   1   3
ATOM      3  C   LIG    1       -1.818  -0.958  -2.669  0.00  0.00    +0.240 C 
ATOM      4  C   LIG    1       -0.792  -1.470  -3.682  0.00  0.00    +0.070 C 
ENDBRANCH   1   3
BRANCH   1   5
ATOM      5  C   LIG    1       -0.173  -0.896  -0.923  0.00  0.00    +0.240 C 
BRANCH   5   6
ATOM      6  C   LIG    1       -0.291   0.623  -0.778  0.00  0.00    -0.020 C 
BRANCH   6   8
ATOM      7  C   LIG    1       -1.449   2.467   0.447  0.00  0.00    +0.040 C 
ATOM      8  C   LIG    1       -1.249   0.952   0.369  0.00  0.00    +0.000 C 
ENDBRANCH   6   8
BRANCH   6   9
ATOM      9  C   LIG    1        1.087   1.215  -0.478  0.00  0.00    +0.040 C 
ATOM     10  C   LIG    1        2.014   0.980  -1.672  0.00  0.00    +0.020 C 
ENDBRANCH   6   9
ENDBRANCH   5   6
ENDBRANCH   1   5
BRANCH   1  11
ATOM     11  C   LIG    1       -1.390  -2.918  -1.353  0.00  0.00    +0.280 C 
BRANCH  11  12
ATOM     12  C   LIG    1       -2.752  -3.491  -1.650  0.00  0.00    -0.130 C 
ATOM     13  C   LIG    1       -3.278  -4.381  -0.845  0.00  0.00    -0.030 C 
ATOM     14  C   LIG    1       -4.690  -4.858  -1.068  0.00  0.00    +0.090 C 
ATOM     15  C   LIG    1       -2.471  -4.927   0.305  0.00  0.00    +0.080 C 
ENDBRANCH  11  12
ENDBRANCH   1  11
TORSDOF 7
ENDMDL
MODEL      125
REMARK  Name = ZINC000308487507
REMARK                            x       y       z     vdW  Elec       q    Type
REMARK                         _______ _______ _______ _____ _____    ______ ____
ROOT
ATOM      1  N   LIG    1        2.147  -0.379   0.887  0.00  0.00    -0.380 N 
ATOM      2  C   LIG    1        2.099   1.081   0.728  0.00  0.00    +0.320 C 
ATOM      3  H   LIG    1        2.594  -0.791   0.082  0.00  0.00    +0.420 HD
ENDROOT
BRANCH   1   4
ATOM      4  C   LIG    1        0.780  -0.903   1.011  0.00  0.00    +0.160 C 
BRANCH   4   6
ATOM      5  C   LIG    1        0.396  -0.965   3.479  0.00  0.00    +0.040 C 
ATOM      6  C   LIG    1        0.075  -0.217   2.183  0.00  0.00    +0.050 C 
ENDBRANCH   4   6
BRANCH   4   7
ATOM      7  C   LIG    1        0.009  -0.625  -0.281  0.00  0.00    +0.050 C 
ATOM      8  C   LIG    1        0.648  -1.401  -1.434  0.00  0.00    +0.030 C 
ENDBRANCH   4   7
ENDBRANCH   1   4
BRANCH   1   9
ATOM      9  C   LIG    1        2.911  -0.715   2.096  0.00  0.00    +0.250 C 
BRANCH   9  10
ATOM     10  C   LIG    1        4.383  -0.356   1.885  0.00  0.00    +0.030 C 
BRANCH  10  11
ATOM     11  C   LIG    1        5.179  -0.706   3.144  0.00  0.00    +0.030 C 
BRANCH  11  12
ATOM     12  C   LIG    1        6.651  -0.347   2.933  0.00  0.00    -0.030 C 
ATOM     13  C   LIG    1        7.468  -0.810   4.141  0.00  0.00    +0.030 C 
ATOM     14  C   LIG    1        6.790   1.169   2.775  0.00  0.00    +0.020 C 
ENDBRANCH  11  12
ENDBRANCH  10  11
ENDBRANCH   9  10
ENDBRANCH   1   9
TORSDOF 7
ENDMDL
MODEL      126
REMARK  Name = ZINC000149373066
REMARK                            x       y       z     vdW  Elec       q    Type
REMARK                         _______ _______ _______ _____ _____    ______ ____
ROOT
ATOM      1  C   LIG    1       -0.164   1.292   0.461  0.00  0.00    +0.300 C 
ATOM      2  N   LIG    1       -0.079  -0.147   0.179  0.00  0.00    -0.390 N 
ATOM      3  H   LIG    1        0.500  -0.297  -0.633  0.00  0.00    +0.420 HD
ENDROOT
BRANCH   2   4
ATOM      4  C   LIG    1       -1.426  -0.677  -0.075  0.00  0.00    +0.260 C 
BRANCH   4   5
ATOM      5  C   LIG    1       -1.794  -0.450  -1.542  0.00  0.00    -0.090 C 
ATOM      6  C   LIG    1       -1.746   1.047  -1.855  0.00  0.00    +0.050 C 
ATOM      7  C   LIG    1       -3.206  -0.980  -1.802  0.00  0.00    +0.070 C 
ATOM      8  C   LIG    1       -0.799  -1.190  -2.438  0.00  0.00    +0.050 C 
ENDBRANCH   4   5
ENDBRANCH   2   4
BRANCH   2   9
ATOM      9  C   LIG    1        0.508  -0.838   1.335  0.00  0.00    +0.250 C 
BRANCH   9  10
ATOM     10  C   LIG    1        1.965  -0.400   1.504  0.00  0.00    -0.020 C 
ATOM     11  C   LIG    1        2.547  -1.044   2.764  0.00  0.00    +0.030 C 
ATOM     12  C   LIG    1        4.004  -0.606   2.933  0.00  0.00    +0.020 C 
ATOM     13  C   LIG    1        4.814  -1.048   1.713  0.00  0.00    +0.010 C 
ATOM     14  C   LIG    1        4.231  -0.404   0.454  0.00  0.00    +0.020 C 
ATOM     15  C   LIG    1        2.775  -0.842   0.284  0.00  0.00    +0.000 C 
ENDBRANCH   9  10
ENDBRANCH   2   9
TORSDOF 4
ENDMDL
MODEL      127
REMARK  Name = ZINC000149400641
REMARK                            x       y       z     vdW  Elec       q    Type
REMARK                         _______ _______ _______ _____ _____    ______ ____
ROOT
ATOM      1  C   LIG    1       -0.019   1.524   0.010  0.00  0.00    +0.080 C 
ATOM      2  C   LIG    1        0.002  -0.004   0.002  0.00  0.00    +0.150 C 
ATOM      3  C   LIG    1       -1.413  -0.556  -0.097  0.00  0.00    +0.070 C 
ATOM      4  C   LIG    1       -2.132  -0.419   1.246  0.00  0.00    +0.030 C 
ATOM      5  C   LIG    1       -1.336  -1.191   2.298  0.00  0.00    +0.070 C 
ATOM      6  C   LIG    1        0.082  -0.646   2.397  0.00  0.00    +0.150 C 
ATOM      7  C   LIG    1        0.095   0.679   3.159  0.00  0.00    +0.080 C 
ATOM      8  N   LIG    1        0.761  -0.543   1.117  0.00  0.00    -0.370 N 
ATOM      9  H   LIG    1        1.073  -1.486   0.854  0.00  0.00    +0.420 HD
ENDROOT
BRANCH   8  10
ATOM     10  C   LIG    1        1.990   0.261   1.292  0.00  0.00    +0.240 C 
BRANCH  10  11
ATOM     11  C   LIG    1        2.780   0.276  -0.018  0.00  0.00    +0.040 C 
BRANCH  11  12
ATOM     12  C   LIG    1        4.051   1.108   0.162  0.00  0.00    -0.060 C 
ATOM     13  C   LIG    1        3.673   2.540   0.546  0.00  0.00    +0.020 C 
ATOM     14  C   LIG    1        4.842   1.122  -1.147  0.00  0.00    +0.040 C 
ATOM     15  C   LIG    1        4.910   0.493   1.270  0.00  0.00    +0.030 C 
ENDBRANCH  11  12
ENDBRANCH  10  11
ENDBRANCH   8  10
TORSDOF 3
ENDMDL
MODEL      128
REMARK  Name = ZINC001170845438
REMARK                            x       y       z     vdW  Elec       q    Type
REMARK                         _______ _______ _______ _____ _____    ______ ____
ROOT
ATOM      1  N   LIG    1        0.790  -2.160   3.563  0.00  0.00    -0.380 N 
ATOM      2  C   LIG    1        1.777  -2.525   4.588  0.00  0.00    +0.320 C 
ATOM      3  H   LIG    1       -0.127  -2.466   3.856  0.00  0.00    +0.420 HD
ENDROOT
BRANCH   1   4
ATOM      4  C   LIG    1        1.140  -2.809   2.293  0.00  0.00    +0.160 C 
ATOM      5  C   LIG    1        2.565  -2.420   1.897  0.00  0.00    +0.090 C 
BRANCH   4   6
ATOM      6  C   LIG    1        1.053  -4.328   2.455  0.00  0.00    +0.050 C 
BRANCH   6   7
ATOM      7  C   LIG    1       -0.393  -4.727   2.756  0.00  0.00    -0.000 C 
BRANCH   7   9
ATOM      8  C   LIG    1       -1.951  -6.652   3.090  0.00  0.00    +0.010 C 
ATOM      9  C   LIG    1       -0.505  -6.253   2.789  0.00  0.00    +0.020 C 
ENDBRANCH   7   9
ENDBRANCH   6   7
ENDBRANCH   4   6
ENDBRANCH   1   4
BRANCH   1  10
ATOM     10  C   LIG    1        0.786  -0.702   3.384  0.00  0.00    +0.240 C 
BRANCH  10  11
ATOM     11  C   LIG    1       -0.339  -0.310   2.424  0.00  0.00    -0.020 C 
BRANCH  11  12
ATOM     12  C   LIG    1       -0.279   1.196   2.157  0.00  0.00    +0.030 C 
ATOM     13  C   LIG    1       -1.312   1.566   1.091  0.00  0.00    +0.030 C 
ENDBRANCH  11  12
BRANCH  11  14
ATOM     14  C   LIG    1       -1.690  -0.663   3.050  0.00  0.00    -0.000 C 
ATOM     15  C   LIG    1       -1.907   0.185   4.305  0.00  0.00    +0.020 C 
ENDBRANCH  11  14
ENDBRANCH  10  11
ENDBRANCH   1  10
TORSDOF 8
ENDMDL
MODEL      129
REMARK  Name = ZINC001170847545
REMARK                            x       y       z     vdW  Elec       q    Type
REMARK                         _______ _______ _______ _____ _____    ______ ____
ROOT
ATOM      1  N   LIG    1        1.323  -4.590   0.979  0.00  0.00    -0.380 N 
ATOM      2  C   LIG    1        1.628  -5.195  -0.324  0.00  0.00    +0.320 C 
ATOM      3  H   LIG    1        2.013  -3.885   1.193  0.00  0.00    +0.420 HD
ENDROOT
BRANCH   1   4
ATOM      4  C   LIG    1        1.345  -5.627   2.019  0.00  0.00    +0.160 C 
ATOM      5  C   LIG    1        0.379  -6.751   1.638  0.00  0.00    +0.080 C 
BRANCH   4   6
ATOM      6  C   LIG    1        2.761  -6.192   2.146  0.00  0.00    +0.050 C 
BRANCH   6   7
ATOM      7  C   LIG    1        3.707  -5.094   2.635  0.00  0.00    +0.000 C 
BRANCH   7   8
ATOM      8  C   LIG    1        5.141  -5.625   2.649  0.00  0.00    +0.010 C 
ATOM      9  C   LIG    1        6.087  -4.526   3.139  0.00  0.00    +0.010 C 
ENDBRANCH   7   8
ENDBRANCH   6   7
ENDBRANCH   4   6
ENDBRANCH   1   4
BRANCH   1  10
ATOM     10  C   LIG    1       -0.009  -3.971   0.932  0.00  0.00    +0.250 C 
BRANCH  10  11
ATOM     11  C   LIG    1        0.011  -2.791  -0.041  0.00  0.00    +0.060 C 
BRANCH  11  13
ATOM     12  C   LIG    1       -1.492  -0.855   0.137  0.00  0.00    +0.040 C 
ATOM     13  C   LIG    1       -1.355  -2.157  -0.090  0.00  0.00    -0.050 C 
BRANCH  12  15
ATOM     14  C   LIG    1       -0.434   1.307   0.436  0.00  0.00    +0.080 C 
ATOM     15  C   LIG    1       -0.301  -0.009   0.304  0.00  0.00    -0.060 C 
ENDBRANCH  12  15
ENDBRANCH  11  13
ENDBRANCH  10  11
ENDBRANCH   1  10
TORSDOF 8
ENDMDL
MODEL      130
REMARK  Name = ZINC001170845876
REMARK                            x       y       z     vdW  Elec       q    Type
REMARK                         _______ _______ _______ _____ _____    ______ ____
ROOT
ATOM      1  N   LIG    1       -5.446  -2.057  -1.882  0.00  0.00    -0.390 N 
ATOM      2  C   LIG    1       -5.795  -3.475  -1.719  0.00  0.00    +0.310 C 
ATOM      3  H   LIG    1       -5.833  -1.525  -1.117  0.00  0.00    +0.420 HD
ENDROOT
BRANCH   1   4
ATOM      4  C   LIG    1       -5.994  -1.561  -3.151  0.00  0.00    +0.170 C 
ATOM      5  C   LIG    1       -5.296  -2.264  -4.317  0.00  0.00    +0.080 C 
BRANCH   4   6
ATOM      6  C   LIG    1       -5.760  -0.052  -3.252  0.00  0.00    +0.050 C 
BRANCH   6   7
ATOM      7  C   LIG    1       -6.521   0.658  -2.130  0.00  0.00    -0.000 C 
BRANCH   7   8
ATOM      8  C   LIG    1       -6.393   2.172  -2.305  0.00  0.00    +0.020 C 
ATOM      9  C   LIG    1       -7.153   2.882  -1.183  0.00  0.00    +0.010 C 
ENDBRANCH   7   8
ENDBRANCH   6   7
ENDBRANCH   4   6
ENDBRANCH   1   4
BRANCH   1  10
ATOM     10  C   LIG    1       -3.984  -1.911  -1.889  0.00  0.00    +0.240 C 
BRANCH  10  11
ATOM     11  C   LIG    1       -3.427  -2.289  -0.515  0.00  0.00    +0.070 C 
BRANCH  11  13
ATOM     12  C   LIG    1       -1.340  -1.384   0.373  0.00  0.00    +0.000 C 
ATOM     13  C   LIG    1       -1.927  -2.139  -0.523  0.00  0.00    -0.070 C 
BRANCH  12  15
ATOM     14  C   LIG    1        0.523   0.250   0.298  0.00  0.00    +0.020 C 
ATOM     15  C   LIG    1        0.160  -1.234   0.366  0.00  0.00    +0.040 C 
ENDBRANCH  12  15
ENDBRANCH  11  13
ENDBRANCH  10  11
ENDBRANCH   1  10
TORSDOF 8
ENDMDL
MODEL      131
REMARK  Name = ZINC001170847546
REMARK                            x       y       z     vdW  Elec       q    Type
REMARK                         _______ _______ _______ _____ _____    ______ ____
ROOT
ATOM      1  N   LIG    1       -3.860  -4.476  -1.231  0.00  0.00    -0.380 N 
ATOM      2  C   LIG    1       -4.017  -5.307  -0.030  0.00  0.00    +0.330 C 
ATOM      3  H   LIG    1       -4.586  -3.775  -1.252  0.00  0.00    +0.420 HD
ENDROOT
BRANCH   1   4
ATOM      4  C   LIG    1       -3.960  -5.321  -2.428  0.00  0.00    +0.170 C 
ATOM      5  C   LIG    1       -2.946  -6.463  -2.332  0.00  0.00    +0.080 C 
BRANCH   4   6
ATOM      6  C   LIG    1       -5.372  -5.900  -2.528  0.00  0.00    +0.050 C 
BRANCH   6   7
ATOM      7  C   LIG    1       -6.374  -4.765  -2.751  0.00  0.00    -0.000 C 
BRANCH   7   8
ATOM      8  C   LIG    1       -7.768  -5.353  -2.977  0.00  0.00    +0.020 C 
ATOM      9  C   LIG    1       -8.770  -4.218  -3.200  0.00  0.00    +0.010 C 
ENDBRANCH   7   8
ENDBRANCH   6   7
ENDBRANCH   4   6
ENDBRANCH   1   4
BRANCH   1  10
ATOM     10  C   LIG    1       -2.546  -3.819  -1.203  0.00  0.00    +0.250 C 
BRANCH  10  11
ATOM     11  C   LIG    1       -2.498  -2.826  -0.040  0.00  0.00    +0.070 C 
BRANCH  11  13
ATOM     12  C   LIG    1       -1.069  -0.826  -0.037  0.00  0.00    +0.040 C 
ATOM     13  C   LIG    1       -1.150  -2.152  -0.011  0.00  0.00    -0.060 C 
BRANCH  12  15
ATOM     14  C   LIG    1        0.327   1.158  -0.035  0.00  0.00    +0.060 C 
ATOM     15  C   LIG    1        0.246  -0.168  -0.009  0.00  0.00    -0.040 C 
ENDBRANCH  12  15
ENDBRANCH  11  13
ENDBRANCH  10  11
ENDBRANCH   1  10
TORSDOF 8
ENDMDL
MODEL      132
REMARK  Name = ZINC001170845877
REMARK                            x       y       z     vdW  Elec       q    Type
REMARK                         _______ _______ _______ _____ _____    ______ ____
ROOT
ATOM      1  N   LIG    1       -0.175  -3.712  -3.309  0.00  0.00    -0.390 N 
ATOM      2  C   LIG    1       -0.410  -3.111  -4.629  0.00  0.00    +0.310 C 
ATOM      3  H   LIG    1        0.650  -3.304  -2.897  0.00  0.00    +0.420 HD
ENDROOT
BRANCH   1   4
ATOM      4  C   LIG    1        0.018  -5.161  -3.459  0.00  0.00    +0.170 C 
ATOM      5  C   LIG    1       -1.276  -5.797  -3.971  0.00  0.00    +0.080 C 
BRANCH   4   6
ATOM      6  C   LIG    1        0.384  -5.769  -2.103  0.00  0.00    +0.050 C 
BRANCH   6   7
ATOM      7  C   LIG    1        1.732  -5.213  -1.642  0.00  0.00    -0.000 C 
BRANCH   7   8
ATOM      8  C   LIG    1        2.160  -5.916  -0.353  0.00  0.00    +0.020 C 
ATOM      9  C   LIG    1        3.509  -5.360   0.108  0.00  0.00    +0.010 C 
ENDBRANCH   7   8
ENDBRANCH   6   7
ENDBRANCH   4   6
ENDBRANCH   1   4
BRANCH   1  10
ATOM     10  C   LIG    1       -1.333  -3.459  -2.442  0.00  0.00    +0.250 C 
BRANCH  10  11
ATOM     11  C   LIG    1       -1.456  -1.956  -2.181  0.00  0.00    +0.070 C 
BRANCH  11  13
ATOM     12  C   LIG    1       -2.498  -1.000  -0.191  0.00  0.00    +0.000 C 
ATOM     13  C   LIG    1       -2.643  -1.696  -1.291  0.00  0.00    -0.070 C 
BRANCH  12  15
ATOM     14  C   LIG    1       -1.446   1.160   0.424  0.00  0.00    +0.030 C 
ATOM     15  C   LIG    1       -1.188  -0.312   0.098  0.00  0.00    +0.040 C 
ENDBRANCH  12  15
ENDBRANCH  11  13
ENDBRANCH  10  11
ENDBRANCH   1  10
TORSDOF 8
ENDMDL
MODEL      133
REMARK  Name = ZINC001170847543
REMARK                            x       y       z     vdW  Elec       q    Type
REMARK                         _______ _______ _______ _____ _____    ______ ____
ROOT
ATOM      1  N   LIG    1       -4.143  -4.353  -1.039  0.00  0.00    -0.390 N 
ATOM      2  C   LIG    1       -4.553  -5.256   0.045  0.00  0.00    +0.310 C 
ATOM      3  H   LIG    1       -4.809  -3.599  -1.118  0.00  0.00    +0.420 HD
ENDROOT
BRANCH   1   4
ATOM      4  C   LIG    1       -4.096  -5.098  -2.305  0.00  0.00    +0.170 C 
ATOM      5  C   LIG    1       -2.983  -6.146  -2.238  0.00  0.00    +0.080 C 
BRANCH   4   6
ATOM      6  C   LIG    1       -3.816  -4.130  -3.456  0.00  0.00    +0.050 C 
BRANCH   6   7
ATOM      7  C   LIG    1       -4.967  -3.128  -3.571  0.00  0.00    -0.000 C 
BRANCH   7   8
ATOM      8  C   LIG    1       -4.751  -2.242  -4.800  0.00  0.00    +0.020 C 
ATOM      9  C   LIG    1       -5.902  -1.241  -4.915  0.00  0.00    +0.010 C 
ENDBRANCH   7   8
ENDBRANCH   6   7
ENDBRANCH   4   6
ENDBRANCH   1   4
BRANCH   1  10
ATOM     10  C   LIG    1       -2.813  -3.805  -0.744  0.00  0.00    +0.240 C 
BRANCH  10  11
ATOM     11  C   LIG    1       -2.895  -2.908   0.493  0.00  0.00    +0.070 C 
BRANCH  11  13
ATOM     12  C   LIG    1       -1.361  -1.031   0.898  0.00  0.00    +0.030 C 
ATOM     13  C   LIG    1       -1.530  -2.345   0.796  0.00  0.00    -0.060 C 
BRANCH  12  15
ATOM     14  C   LIG    1        0.141   0.832   1.297  0.00  0.00    +0.060 C 
ATOM     15  C   LIG    1       -0.029  -0.482   1.194  0.00  0.00    -0.040 C 
ENDBRANCH  12  15
ENDBRANCH  11  13
ENDBRANCH  10  11
ENDBRANCH   1  10
TORSDOF 8
ENDMDL
MODEL      134
REMARK  Name = ZINC001170845880
REMARK                            x       y       z     vdW  Elec       q    Type
REMARK                         _______ _______ _______ _____ _____    ______ ____
ROOT
ATOM      1  N   LIG    1       -5.281  -1.984  -2.197  0.00  0.00    -0.380 N 
ATOM      2  C   LIG    1       -5.347  -3.441  -2.024  0.00  0.00    +0.330 C 
ATOM      3  H   LIG    1       -5.725  -1.531  -1.412  0.00  0.00    +0.420 HD
ENDROOT
BRANCH   1   4
ATOM      4  C   LIG    1       -5.975  -1.606  -3.436  0.00  0.00    +0.170 C 
ATOM      5  C   LIG    1       -5.389  -2.393  -4.609  0.00  0.00    +0.080 C 
BRANCH   4   6
ATOM      6  C   LIG    1       -7.466  -1.924  -3.303  0.00  0.00    +0.050 C 
BRANCH   6   7
ATOM      7  C   LIG    1       -8.079  -1.044  -2.212  0.00  0.00    -0.000 C 
BRANCH   7   8
ATOM      8  C   LIG    1       -9.592  -1.269  -2.165  0.00  0.00    +0.020 C 
ATOM      9  C   LIG    1      -10.206  -0.389  -1.075  0.00  0.00    +0.010 C 
ENDBRANCH   7   8
ENDBRANCH   6   7
ENDBRANCH   4   6
ENDBRANCH   1   4
BRANCH   1  10
ATOM     10  C   LIG    1       -3.876  -1.563  -2.275  0.00  0.00    +0.250 C 
BRANCH  10  11
ATOM     11  C   LIG    1       -3.191  -1.820  -0.932  0.00  0.00    +0.070 C 
BRANCH  11  13
ATOM     12  C   LIG    1       -1.273  -0.530  -0.143  0.00  0.00    +0.000 C 
ATOM     13  C   LIG    1       -1.750  -1.388  -1.012  0.00  0.00    -0.070 C 
BRANCH  12  15
ATOM     14  C   LIG    1        0.240   1.428  -0.304  0.00  0.00    +0.020 C 
ATOM     15  C   LIG    1        0.168  -0.099  -0.223  0.00  0.00    +0.040 C 
ENDBRANCH  12  15
ENDBRANCH  11  13
ENDBRANCH  10  11
ENDBRANCH   1  10
TORSDOF 8
ENDMDL
MODEL      135
REMARK  Name = ZINC001170847544
REMARK                            x       y       z     vdW  Elec       q    Type
REMARK                         _______ _______ _______ _____ _____    ______ ____
ROOT
ATOM      1  N   LIG    1        1.192  -4.774   0.901  0.00  0.00    -0.390 N 
ATOM      2  C   LIG    1        1.572  -5.361  -0.391  0.00  0.00    +0.310 C 
ATOM      3  H   LIG    1        1.741  -3.945   1.068  0.00  0.00    +0.420 HD
ENDROOT
BRANCH   1   4
ATOM      4  C   LIG    1        1.437  -5.748   1.973  0.00  0.00    +0.170 C 
ATOM      5  C   LIG    1        0.494  -6.941   1.804  0.00  0.00    +0.080 C 
BRANCH   4   6
ATOM      6  C   LIG    1        1.186  -5.088   3.330  0.00  0.00    +0.050 C 
BRANCH   6   7
ATOM      7  C   LIG    1        2.215  -3.978   3.556  0.00  0.00    -0.000 C 
BRANCH   7   8
ATOM      8  C   LIG    1        2.047  -3.406   4.965  0.00  0.00    +0.020 C 
ATOM      9  C   LIG    1        3.076  -2.297   5.191  0.00  0.00    +0.010 C 
ENDBRANCH   7   8
ENDBRANCH   6   7
ENDBRANCH   4   6
ENDBRANCH   1   4
BRANCH   1  10
ATOM     10  C   LIG    1       -0.234  -4.421   0.878  0.00  0.00    +0.250 C 
BRANCH  10  11
ATOM     11  C   LIG    1       -0.464  -3.296  -0.133  0.00  0.00    +0.060 C 
BRANCH  11  13
ATOM     12  C   LIG    1       -2.303  -1.675   0.046  0.00  0.00    +0.040 C 
ATOM     13  C   LIG    1       -1.927  -2.933  -0.157  0.00  0.00    -0.050 C 
BRANCH  12  15
ATOM     14  C   LIG    1       -1.669   0.656   0.267  0.00  0.00    +0.080 C 
ATOM     15  C   LIG    1       -1.290  -0.612   0.148  0.00  0.00    -0.060 C 
ENDBRANCH  12  15
ENDBRANCH  11  13
ENDBRANCH  10  11
ENDBRANCH   1  10
TORSDOF 8
ENDMDL
MODEL      136
REMARK  Name = ZINC001170845437
REMARK                            x       y       z     vdW  Elec       q    Type
REMARK                         _______ _______ _______ _____ _____    ______ ____
ROOT
ATOM      1  N   LIG    1        2.865  -1.990   2.644  0.00  0.00    -0.390 N 
ATOM      2  C   LIG    1        2.883  -0.606   3.135  0.00  0.00    +0.300 C 
ATOM      3  H   LIG    1        3.308  -2.032   1.739  0.00  0.00    +0.420 HD
ENDROOT
BRANCH   1   4
ATOM      4  C   LIG    1        1.474  -2.451   2.530  0.00  0.00    +0.160 C 
ATOM      5  C   LIG    1        0.851  -2.543   3.924  0.00  0.00    +0.090 C 
BRANCH   4   6
ATOM      6  C   LIG    1        1.446  -3.829   1.866  0.00  0.00    +0.050 C 
BRANCH   6   7
ATOM      7  C   LIG    1        1.966  -3.715   0.431  0.00  0.00    +0.000 C 
BRANCH   7   9
ATOM      8  C   LIG    1        2.541  -4.992  -1.638  0.00  0.00    +0.010 C 
ATOM      9  C   LIG    1        2.021  -5.106  -0.203  0.00  0.00    +0.020 C 
ENDBRANCH   7   9
ENDBRANCH   6   7
ENDBRANCH   4   6
ENDBRANCH   1   4
BRANCH   1  10
ATOM     10  C   LIG    1        3.590  -2.854   3.585  0.00  0.00    +0.250 C 
BRANCH  10  11
ATOM     11  C   LIG    1        5.068  -2.457   3.606  0.00  0.00    -0.020 C 
BRANCH  11  12
ATOM     12  C   LIG    1        5.694  -2.748   2.241  0.00  0.00    +0.000 C 
ATOM     13  C   LIG    1        7.137  -2.242   2.223  0.00  0.00    +0.040 C 
ENDBRANCH  11  12
BRANCH  11  14
ATOM     14  C   LIG    1        5.797  -3.262   4.684  0.00  0.00    +0.040 C 
ATOM     15  C   LIG    1        5.247  -2.885   6.061  0.00  0.00    +0.020 C 
ENDBRANCH  11  14
ENDBRANCH  10  11
ENDBRANCH   1  10
TORSDOF 8
ENDMDL
MODEL      137
REMARK  Name = ZINC001170845879
REMARK                            x       y       z     vdW  Elec       q    Type
REMARK                         _______ _______ _______ _____ _____    ______ ____
ROOT
ATOM      1  N   LIG    1       -0.033  -3.867  -2.931  0.00  0.00    -0.380 N 
ATOM      2  C   LIG    1       -0.394  -3.094  -4.127  0.00  0.00    +0.310 C 
ATOM      3  H   LIG    1        0.878  -3.577  -2.606  0.00  0.00    +0.420 HD
ENDROOT
BRANCH   1   4
ATOM      4  C   LIG    1       -0.001  -5.297  -3.264  0.00  0.00    +0.170 C 
ATOM      5  C   LIG    1       -1.336  -5.704  -3.891  0.00  0.00    +0.080 C 
BRANCH   4   6
ATOM      6  C   LIG    1        1.132  -5.566  -4.256  0.00  0.00    +0.050 C 
BRANCH   6   7
ATOM      7  C   LIG    1        2.473  -5.223  -3.604  0.00  0.00    -0.000 C 
BRANCH   7   8
ATOM      8  C   LIG    1        3.610  -5.549  -4.574  0.00  0.00    +0.020 C 
ATOM      9  C   LIG    1        4.951  -5.206  -3.921  0.00  0.00    +0.010 C 
ENDBRANCH   7   8
ENDBRANCH   6   7
ENDBRANCH   4   6
ENDBRANCH   1   4
BRANCH   1  10
ATOM     10  C   LIG    1       -1.028  -3.631  -1.877  0.00  0.00    +0.250 C 
BRANCH  10  11
ATOM     11  C   LIG    1       -0.959  -2.169  -1.428  0.00  0.00    +0.070 C 
BRANCH  11  13
ATOM     12  C   LIG    1       -1.610  -1.410   0.799  0.00  0.00    +0.000 C 
ATOM     13  C   LIG    1       -1.980  -1.927  -0.346  0.00  0.00    -0.070 C 
BRANCH  12  15
ATOM     14  C   LIG    1       -0.266   0.554   1.496  0.00  0.00    +0.030 C 
ATOM     15  C   LIG    1       -0.209  -0.882   0.971  0.00  0.00    +0.040 C 
ENDBRANCH  12  15
ENDBRANCH  11  13
ENDBRANCH  10  11
ENDBRANCH   1  10
TORSDOF 8
ENDMDL
MODEL      138
REMARK  Name = ZINC001171058145
REMARK                            x       y       z     vdW  Elec       q    Type
REMARK                         _______ _______ _______ _____ _____    ______ ____
ROOT
ATOM      1  N   LIG    1       -0.728  -1.166  -0.314  0.00  0.00    -0.390 N 
ATOM      2  C   LIG    1       -1.128  -0.538   0.963  0.00  0.00    +0.240 C 
ATOM      3  C   LIG    1       -1.563  -1.719   1.865  0.00  0.00    +0.080 C 
ATOM      4  C   LIG    1       -0.544  -2.816   1.459  0.00  0.00    +0.010 C 
ATOM      5  C   LIG    1       -0.348  -2.566  -0.048  0.00  0.00    +0.060 C 
ATOM      6  C   LIG    1        1.118  -2.784  -0.425  0.00  0.00    +0.100 C 
ATOM      7  C   LIG    1       -1.243  -3.510  -0.853  0.00  0.00    +0.080 C 
ATOM      8  H   LIG    1        0.059  -0.669  -0.705  0.00  0.00    +0.420 HD
ENDROOT
BRANCH   1  10
ATOM      9  C   LIG    1       -2.158   0.322  -1.633  0.00  0.00    +0.080 C 
ATOM     10  C   LIG    1       -1.854  -1.130  -1.257  0.00  0.00    +0.240 C 
ENDBRANCH   1  10
BRANCH   4  11
ATOM     11  C   LIG    1       -1.122  -4.211   1.708  0.00  0.00    +0.060 C 
BRANCH  11  12
ATOM     12  C   LIG    1       -1.261  -4.444   3.214  0.00  0.00    -0.070 C 
ATOM     13  C   LIG    1        0.080  -4.168   3.898  0.00  0.00    +0.020 C 
ATOM     14  C   LIG    1       -1.675  -5.894   3.470  0.00  0.00    +0.030 C 
ATOM     15  C   LIG    1       -2.326  -3.502   3.780  0.00  0.00    +0.020 C 
ENDBRANCH  11  12
ENDBRANCH   4  11
TORSDOF 3
ENDMDL
MODEL      139
REMARK  Name = ZINC001171058144
REMARK                            x       y       z     vdW  Elec       q    Type
REMARK                         _______ _______ _______ _____ _____    ______ ____
ROOT
ATOM      1  N   LIG    1        0.976  -0.719   0.866  0.00  0.00    -0.390 N 
ATOM      2  C   LIG    1        0.026  -0.376   1.954  0.00  0.00    +0.250 C 
ATOM      3  C   LIG    1        0.498  -1.267   3.131  0.00  0.00    +0.070 C 
ATOM      4  C   LIG    1        0.914  -2.578   2.426  0.00  0.00    +0.020 C 
ATOM      5  C   LIG    1        1.196  -2.179   0.965  0.00  0.00    +0.060 C 
ATOM      6  C   LIG    1        2.643  -2.516   0.601  0.00  0.00    +0.100 C 
ATOM      7  C   LIG    1        0.234  -2.914   0.029  0.00  0.00    +0.090 C 
ATOM      8  H   LIG    1        1.847  -0.227   0.996  0.00  0.00    +0.420 HD
ENDROOT
BRANCH   1  10
ATOM      9  C   LIG    1        0.267   1.137  -0.565  0.00  0.00    +0.070 C 
ATOM     10  C   LIG    1        0.394  -0.382  -0.441  0.00  0.00    +0.250 C 
ENDBRANCH   1  10
BRANCH   4  11
ATOM     11  C   LIG    1        2.177  -3.151   3.073  0.00  0.00    +0.040 C 
BRANCH  11  12
ATOM     12  C   LIG    1        1.858  -3.608   4.498  0.00  0.00    -0.070 C 
ATOM     13  C   LIG    1        1.514  -2.390   5.359  0.00  0.00    +0.020 C 
ATOM     14  C   LIG    1        3.074  -4.324   5.089  0.00  0.00    +0.030 C 
ATOM     15  C   LIG    1        0.665  -4.566   4.471  0.00  0.00    +0.020 C 
ENDBRANCH  11  12
ENDBRANCH   4  11
TORSDOF 3
ENDMDL
MODEL      140
REMARK  Name = ZINC001171480073
REMARK                            x       y       z     vdW  Elec       q    Type
REMARK                         _______ _______ _______ _____ _____    ______ ____
ROOT
ATOM      1  C   LIG    1       -0.060   0.144   2.658  0.00  0.00    +0.250 C 
ENDROOT
BRANCH   1   8
ATOM      2  C   LIG    1       -0.999  -1.781   0.659  0.00  0.00    +0.030 C 
ATOM      3  C   LIG    1        0.490  -1.477   0.838  0.00  0.00    -0.040 C 
ATOM      4  C   LIG    1        1.211  -1.656  -0.499  0.00  0.00    +0.030 C 
ATOM      5  C   LIG    1        0.616  -0.697  -1.533  0.00  0.00    +0.010 C 
ATOM      6  C   LIG    1        0.787   0.744  -1.050  0.00  0.00    +0.020 C 
ATOM      7  C   LIG    1        0.066   0.923   0.288  0.00  0.00    +0.040 C 
ATOM      8  C   LIG    1        0.662  -0.035   1.321  0.00  0.00    -0.020 C 
ENDBRANCH   1   8
BRANCH   1   9
ATOM      9  N   LIG    1        0.586  -0.693   3.679  0.00  0.00    -0.380 N 
ATOM     10  C   LIG    1        1.951  -0.205   3.920  0.00  0.00    +0.310 C 
ATOM     11  H   LIG    1        0.622  -1.648   3.357  0.00  0.00    +0.420 HD
BRANCH   9  12
ATOM     12  C   LIG    1       -0.186  -0.625   4.927  0.00  0.00    +0.050 C 
ATOM     13  C   LIG    1       -0.240   0.824   5.415  0.00  0.00    +0.080 C 
ATOM     14  C   LIG    1        0.487  -1.496   5.990  0.00  0.00    +0.090 C 
ATOM     15  C   LIG    1       -1.607  -1.133   4.676  0.00  0.00    +0.090 C 
ENDBRANCH   9  12
ENDBRANCH   1   9
TORSDOF 3
ENDMDL
MODEL      141
REMARK  Name = ZINC001171480074
REMARK                            x       y       z     vdW  Elec       q    Type
REMARK                         _______ _______ _______ _____ _____    ______ ____
ROOT
ATOM      1  C   LIG    1        2.178   0.019   1.231  0.00  0.00    +0.240 C 
ENDROOT
BRANCH   1   8
ATOM      2  C   LIG    1       -0.019   1.526   0.010  0.00  0.00    +0.030 C 
ATOM      3  C   LIG    1        0.002  -0.004   0.002  0.00  0.00    +0.000 C 
ATOM      4  C   LIG    1       -1.433  -0.534   0.013  0.00  0.00    +0.020 C 
ATOM      5  C   LIG    1       -2.149  -0.040   1.272  0.00  0.00    +0.010 C 
ATOM      6  C   LIG    1       -1.409  -0.547   2.511  0.00  0.00    +0.020 C 
ATOM      7  C   LIG    1        0.026  -0.018   2.500  0.00  0.00    +0.000 C 
ATOM      8  C   LIG    1        0.742  -0.511   1.242  0.00  0.00    -0.020 C 
ENDBRANCH   1   8
BRANCH   1   9
ATOM      9  N   LIG    1        2.923  -0.563   2.355  0.00  0.00    -0.380 N 
ATOM     10  C   LIG    1        3.042  -2.015   2.164  0.00  0.00    +0.320 C 
ATOM     11  H   LIG    1        2.432  -0.377   3.216  0.00  0.00    +0.420 HD
BRANCH   9  12
ATOM     12  C   LIG    1        4.263   0.035   2.416  0.00  0.00    +0.050 C 
ATOM     13  C   LIG    1        5.008  -0.248   1.110  0.00  0.00    +0.080 C 
ATOM     14  C   LIG    1        5.039  -0.571   3.587  0.00  0.00    +0.090 C 
ATOM     15  C   LIG    1        4.138   1.547   2.615  0.00  0.00    +0.090 C 
ENDBRANCH   9  12
ENDBRANCH   1   9
TORSDOF 3
ENDMDL
MODEL      142
REMARK  Name = ZINC000308208108
REMARK                            x       y       z     vdW  Elec       q    Type
REMARK                         _______ _______ _______ _____ _____    ______ ____
ROOT
ATOM      1  N   LIG    1       -2.152  -0.120   1.413  0.00  0.00    -0.380 N 
ATOM      2  H   LIG    1       -1.596  -0.473   2.178  0.00  0.00    +0.420 HD
ENDROOT
BRANCH   1   3
ATOM      3  C   LIG    1       -2.281   1.338   1.533  0.00  0.00    +0.240 C 
ATOM      4  C   LIG    1       -2.824   1.690   2.920  0.00  0.00    +0.080 C 
ENDBRANCH   1   3
BRANCH   1   5
ATOM      5  C   LIG    1       -1.499  -0.451   0.140  0.00  0.00    +0.160 C 
BRANCH   5   7
ATOM      6  C   LIG    1       -3.425   0.388  -1.212  0.00  0.00    +0.030 C 
ATOM      7  C   LIG    1       -1.930   0.554  -0.931  0.00  0.00    +0.050 C 
ENDBRANCH   5   7
BRANCH   5   8
ATOM      8  C   LIG    1        0.020  -0.389   0.314  0.00  0.00    +0.050 C 
ATOM      9  C   LIG    1        0.470  -1.498   1.267  0.00  0.00    +0.030 C 
ENDBRANCH   5   8
ENDBRANCH   1   5
BRANCH   1  10
ATOM     10  C   LIG    1       -3.485  -0.735   1.454  0.00  0.00    +0.230 C 
BRANCH  10  11
ATOM     11  C   LIG    1       -3.344  -2.258   1.473  0.00  0.00    +0.040 C 
BRANCH  11  12
ATOM     12  C   LIG    1       -4.731  -2.900   1.399  0.00  0.00    -0.010 C 
ATOM     13  C   LIG    1       -5.523  -2.550   2.661  0.00  0.00    +0.020 C 
ATOM     14  C   LIG    1       -4.585  -4.419   1.293  0.00  0.00    +0.040 C 
ENDBRANCH  11  12
ENDBRANCH  10  11
ENDBRANCH   1  10
TORSDOF 7
ENDMDL
MODEL      143
REMARK  Name = ZINC000308215352
REMARK                            x       y       z     vdW  Elec       q    Type
REMARK                         _______ _______ _______ _____ _____    ______ ____
ROOT
ATOM      1  N   LIG    1        1.254  -3.987  -2.641  0.00  0.00    -0.380 N 
ATOM      2  C   LIG    1       -0.158  -4.390  -2.685  0.00  0.00    +0.330 C 
ATOM      3  H   LIG    1        1.691  -4.384  -1.823  0.00  0.00    +0.420 HD
ENDROOT
BRANCH   1   4
ATOM      4  C   LIG    1        1.939  -4.471  -3.846  0.00  0.00    +0.050 C 
ATOM      5  C   LIG    1        3.410  -4.051  -3.800  0.00  0.00    +0.090 C 
ATOM      6  C   LIG    1        1.276  -3.869  -5.087  0.00  0.00    +0.090 C 
BRANCH   4   7
ATOM      7  C   LIG    1        1.846  -5.997  -3.909  0.00  0.00    +0.040 C 
ATOM      8  C   LIG    1        2.561  -6.500  -5.164  0.00  0.00    +0.060 C 
ENDBRANCH   4   7
ENDBRANCH   1   4
BRANCH   1   9
ATOM      9  C   LIG    1        1.343  -2.522  -2.581  0.00  0.00    +0.240 C 
BRANCH   9  10
ATOM     10  C   LIG    1        0.739  -2.027  -1.265  0.00  0.00    -0.030 C 
ATOM     11  C   LIG    1        1.584  -2.532  -0.094  0.00  0.00    +0.040 C 
BRANCH  10  12
ATOM     12  C   LIG    1        0.718  -0.497  -1.257  0.00  0.00    +0.030 C 
BRANCH  12  14
ATOM     13  C   LIG    1       -0.019   1.526   0.010  0.00  0.00    +0.020 C 
ATOM     14  C   LIG    1        0.002  -0.004   0.002  0.00  0.00    +0.000 C 
ENDBRANCH  12  14
ENDBRANCH  10  12
ENDBRANCH   9  10
ENDBRANCH   1   9
TORSDOF 6
ENDMDL
MODEL      144
REMARK  Name = ZINC000308215351
REMARK                            x       y       z     vdW  Elec       q    Type
REMARK                         _______ _______ _______ _____ _____    ______ ____
ROOT
ATOM      1  N   LIG    1        1.573  -3.949  -2.462  0.00  0.00    -0.380 N 
ATOM      2  C   LIG    1        0.246  -4.471  -2.814  0.00  0.00    +0.310 C 
ATOM      3  H   LIG    1        1.844  -4.301  -1.556  0.00  0.00    +0.420 HD
ENDROOT
BRANCH   1   4
ATOM      4  C   LIG    1        2.553  -4.381  -3.467  0.00  0.00    +0.050 C 
ATOM      5  C   LIG    1        3.935  -3.837  -3.100  0.00  0.00    +0.090 C 
ATOM      6  C   LIG    1        2.143  -3.847  -4.841  0.00  0.00    +0.090 C 
BRANCH   4   7
ATOM      7  C   LIG    1        2.601  -5.910  -3.508  0.00  0.00    +0.040 C 
ATOM      8  C   LIG    1        3.621  -6.360  -4.556  0.00  0.00    +0.060 C 
ENDBRANCH   4   7
ENDBRANCH   1   4
BRANCH   1   9
ATOM      9  C   LIG    1        1.527  -2.481  -2.422  0.00  0.00    +0.240 C 
BRANCH   9  10
ATOM     10  C   LIG    1        0.612  -2.030  -1.282  0.00  0.00    -0.030 C 
ATOM     11  C   LIG    1        0.456  -0.509  -1.325  0.00  0.00    +0.070 C 
BRANCH  10  12
ATOM     12  C   LIG    1        1.224  -2.443   0.058  0.00  0.00    +0.000 C 
BRANCH  12  14
ATOM     13  C   LIG    1        0.863  -2.517   2.529  0.00  0.00    +0.010 C 
ATOM     14  C   LIG    1        0.251  -2.104   1.189  0.00  0.00    +0.010 C 
ENDBRANCH  12  14
ENDBRANCH  10  12
ENDBRANCH   9  10
ENDBRANCH   1   9
TORSDOF 6
ENDMDL
MODEL      145
REMARK  Name = ZINC001171523788
REMARK                            x       y       z     vdW  Elec       q    Type
REMARK                         _______ _______ _______ _____ _____    ______ ____
ROOT
ATOM      1  N   LIG    1       -4.205  -4.631   0.017  0.00  0.00    -0.390 N 
ATOM      2  C   LIG    1       -4.879  -4.245  -1.229  0.00  0.00    +0.300 C 
ATOM      3  H   LIG    1       -4.702  -4.240   0.803  0.00  0.00    +0.420 HD
ENDROOT
BRANCH   1   4
ATOM      4  C   LIG    1       -2.827  -4.123   0.007  0.00  0.00    +0.250 C 
BRANCH   4   5
ATOM      5  C   LIG    1       -2.848  -2.593   0.015  0.00  0.00    +0.030 C 
BRANCH   5   6
ATOM      6  C   LIG    1       -1.413  -2.063   0.004  0.00  0.00    +0.020 C 
BRANCH   6   7
ATOM      7  C   LIG    1       -1.433  -0.534   0.013  0.00  0.00    +0.020 C 
BRANCH   7   9
ATOM      8  C   LIG    1       -0.019   1.526   0.010  0.00  0.00    +0.020 C 
ATOM      9  C   LIG    1        0.002  -0.004   0.002  0.00  0.00    -0.010 C 
ENDBRANCH   7   9
ENDBRANCH   6   7
ENDBRANCH   5   6
ENDBRANCH   4   5
ENDBRANCH   1   4
BRANCH   1  10
ATOM     10  C   LIG    1       -4.186  -6.096   0.130  0.00  0.00    +0.240 C 
BRANCH  10  11
ATOM     11  C   LIG    1       -5.619  -6.616   0.266  0.00  0.00    +0.040 C 
BRANCH  11  12
ATOM     12  C   LIG    1       -5.598  -8.141   0.384  0.00  0.00    -0.060 C 
ATOM     13  C   LIG    1       -4.955  -8.741  -0.869  0.00  0.00    +0.030 C 
ATOM     14  C   LIG    1       -7.031  -8.661   0.520  0.00  0.00    +0.040 C 
ATOM     15  C   LIG    1       -4.789  -8.547   1.617  0.00  0.00    +0.030 C 
ENDBRANCH  11  12
ENDBRANCH  10  11
ENDBRANCH   1  10
TORSDOF 8
ENDMDL
MODEL      146
REMARK  Name = ZINC001171480072
REMARK                            x       y       z     vdW  Elec       q    Type
REMARK                         _______ _______ _______ _____ _____    ______ ____
ROOT
ATOM      1  C   LIG    1        0.026  -0.018   2.500  0.00  0.00    +0.250 C 
ENDROOT
BRANCH   1   8
ATOM      2  C   LIG    1       -0.019   1.526   0.010  0.00  0.00    +0.020 C 
ATOM      3  C   LIG    1        0.002  -0.004   0.002  0.00  0.00    +0.000 C 
ATOM      4  C   LIG    1        0.718  -0.497  -1.257  0.00  0.00    +0.020 C 
ATOM      5  C   LIG    1        0.739  -2.027  -1.265  0.00  0.00    +0.010 C 
ATOM      6  C   LIG    1        1.479  -2.534  -0.026  0.00  0.00    +0.020 C 
ATOM      7  C   LIG    1        0.763  -2.041   1.233  0.00  0.00    +0.010 C 
ATOM      8  C   LIG    1        0.742  -0.511   1.242  0.00  0.00    -0.020 C 
ENDBRANCH   1   8
BRANCH   1   9
ATOM      9  N   LIG    1        0.801  -0.402   3.687  0.00  0.00    -0.380 N 
ATOM     10  C   LIG    1        2.093   0.297   3.676  0.00  0.00    +0.320 C 
ATOM     11  H   LIG    1        0.958  -1.399   3.678  0.00  0.00    +0.420 HD
BRANCH   9  12
ATOM     12  C   LIG    1        0.056  -0.035   4.899  0.00  0.00    +0.050 C 
ATOM     13  C   LIG    1       -0.181   1.477   4.913  0.00  0.00    +0.080 C 
ATOM     14  C   LIG    1        0.864  -0.435   6.135  0.00  0.00    +0.090 C 
ATOM     15  C   LIG    1       -1.289  -0.763   4.911  0.00  0.00    +0.090 C 
ENDBRANCH   9  12
ENDBRANCH   1   9
TORSDOF 3
ENDMDL
MODEL      147
REMARK  Name = ZINC000308233780
REMARK                            x       y       z     vdW  Elec       q    Type
REMARK                         _______ _______ _______ _____ _____    ______ ____
ROOT
ATOM      1  N   LIG    1       -2.601  -4.180   0.127  0.00  0.00    -0.390 N 
ATOM      2  C   LIG    1       -1.827  -4.496   1.335  0.00  0.00    +0.310 C 
ATOM      3  H   LIG    1       -2.192  -4.650  -0.667  0.00  0.00    +0.420 HD
ENDROOT
BRANCH   1   4
ATOM      4  C   LIG    1       -3.988  -4.631   0.303  0.00  0.00    +0.160 C 
ATOM      5  C   LIG    1       -4.655  -3.811   1.409  0.00  0.00    +0.080 C 
BRANCH   4   6
ATOM      6  C   LIG    1       -4.756  -4.440  -1.006  0.00  0.00    +0.050 C 
BRANCH   6   7
ATOM      7  C   LIG    1       -4.167  -5.357  -2.081  0.00  0.00    -0.000 C 
ATOM      8  C   LIG    1       -5.014  -5.262  -3.352  0.00  0.00    +0.030 C 
ENDBRANCH   6   7
ENDBRANCH   4   6
ENDBRANCH   1   4
BRANCH   1   9
ATOM      9  C   LIG    1       -2.583  -2.729  -0.100  0.00  0.00    +0.240 C 
BRANCH   9  10
ATOM     10  C   LIG    1       -1.153  -2.278  -0.406  0.00  0.00    -0.030 C 
ATOM     11  C   LIG    1       -0.694  -2.900  -1.727  0.00  0.00    +0.040 C 
BRANCH  10  12
ATOM     12  C   LIG    1       -1.112  -0.753  -0.520  0.00  0.00    +0.030 C 
BRANCH  12  14
ATOM     13  C   LIG    1        0.376   1.232  -0.816  0.00  0.00    +0.020 C 
ATOM     14  C   LIG    1        0.336  -0.294  -0.702  0.00  0.00    +0.000 C 
ENDBRANCH  12  14
ENDBRANCH  10  12
ENDBRANCH   9  10
ENDBRANCH   1   9
TORSDOF 7
ENDMDL
MODEL      148
REMARK  Name = ZINC000308233779
REMARK                            x       y       z     vdW  Elec       q    Type
REMARK                         _______ _______ _______ _____ _____    ______ ____
ROOT
ATOM      1  N   LIG    1       -0.667  -2.646   1.503  0.00  0.00    -0.390 N 
ATOM      2  C   LIG    1       -0.530  -4.100   1.667  0.00  0.00    +0.310 C 
ATOM      3  H   LIG    1       -1.085  -2.252   2.332  0.00  0.00    +0.420 HD
ENDROOT
BRANCH   1   4
ATOM      4  C   LIG    1        0.659  -2.050   1.294  0.00  0.00    +0.160 C 
ATOM      5  C   LIG    1        1.353  -2.747   0.121  0.00  0.00    +0.090 C 
BRANCH   4   6
ATOM      6  C   LIG    1        1.502  -2.223   2.559  0.00  0.00    +0.050 C 
BRANCH   6   8
ATOM      7  C   LIG    1        1.710  -1.604   4.971  0.00  0.00    +0.040 C 
ATOM      8  C   LIG    1        0.850  -1.458   3.714  0.00  0.00    -0.010 C 
ENDBRANCH   6   8
ENDBRANCH   4   6
ENDBRANCH   1   4
BRANCH   1   9
ATOM      9  C   LIG    1       -1.520  -2.363   0.341  0.00  0.00    +0.250 C 
BRANCH   9  10
ATOM     10  C   LIG    1       -2.932  -2.888   0.606  0.00  0.00    -0.030 C 
ATOM     11  C   LIG    1       -3.557  -2.111   1.766  0.00  0.00    +0.040 C 
BRANCH  10  12
ATOM     12  C   LIG    1       -3.788  -2.706  -0.650  0.00  0.00    +0.030 C 
BRANCH  12  13
ATOM     13  C   LIG    1       -5.161  -3.343  -0.428  0.00  0.00    +0.000 C 
ATOM     14  C   LIG    1       -6.016  -3.160  -1.684  0.00  0.00    +0.020 C 
ENDBRANCH  12  13
ENDBRANCH  10  12
ENDBRANCH   9  10
ENDBRANCH   1   9
TORSDOF 7
ENDMDL
MODEL      149
REMARK  Name = ZINC000308233778
REMARK                            x       y       z     vdW  Elec       q    Type
REMARK                         _______ _______ _______ _____ _____    ______ ____
ROOT
ATOM      1  N   LIG    1       -2.744  -4.176  -0.144  0.00  0.00    -0.390 N 
ATOM      2  C   LIG    1       -2.381  -4.598   1.215  0.00  0.00    +0.310 C 
ATOM      3  H   LIG    1       -2.120  -4.608  -0.809  0.00  0.00    +0.420 HD
ENDROOT
BRANCH   1   4
ATOM      4  C   LIG    1       -4.126  -4.585  -0.431  0.00  0.00    +0.160 C 
ATOM      5  C   LIG    1       -5.085  -3.818   0.482  0.00  0.00    +0.080 C 
BRANCH   4   6
ATOM      6  C   LIG    1       -4.456  -4.276  -1.893  0.00  0.00    +0.050 C 
BRANCH   6   7
ATOM      7  C   LIG    1       -3.586  -5.141  -2.806  0.00  0.00    -0.010 C 
ATOM      8  C   LIG    1       -3.829  -4.747  -4.265  0.00  0.00    +0.040 C 
ENDBRANCH   6   7
ENDBRANCH   4   6
ENDBRANCH   1   4
BRANCH   1   9
ATOM      9  C   LIG    1       -2.635  -2.715  -0.249  0.00  0.00    +0.240 C 
BRANCH   9  10
ATOM     10  C   LIG    1       -1.170  -2.301  -0.092  0.00  0.00    -0.030 C 
ATOM     11  C   LIG    1       -1.072  -0.774  -0.063  0.00  0.00    +0.070 C 
BRANCH  10  12
ATOM     12  C   LIG    1       -0.358  -2.842  -1.271  0.00  0.00    +0.000 C 
BRANCH  12  14
ATOM     13  C   LIG    1        1.937  -3.076  -2.231  0.00  0.00    +0.010 C 
ATOM     14  C   LIG    1        1.125  -2.535  -1.052  0.00  0.00    +0.010 C 
ENDBRANCH  12  14
ENDBRANCH  10  12
ENDBRANCH   9  10
ENDBRANCH   1   9
TORSDOF 7
ENDMDL
MODEL      150
REMARK  Name = ZINC000308233781
REMARK                            x       y       z     vdW  Elec       q    Type
REMARK                         _______ _______ _______ _____ _____    ______ ____
ROOT
ATOM      1  N   LIG    1       -2.604  -3.984  -0.147  0.00  0.00    -0.390 N 
ATOM      2  C   LIG    1       -2.352  -4.398   1.240  0.00  0.00    +0.320 C 
ATOM      3  H   LIG    1       -1.845  -4.295  -0.734  0.00  0.00    +0.420 HD
ENDROOT
BRANCH   1   4
ATOM      4  C   LIG    1       -3.862  -4.581  -0.615  0.00  0.00    +0.160 C 
ATOM      5  C   LIG    1       -4.989  -4.223   0.356  0.00  0.00    +0.080 C 
BRANCH   4   6
ATOM      6  C   LIG    1       -3.710  -6.102  -0.683  0.00  0.00    +0.050 C 
BRANCH   6   7
ATOM      7  C   LIG    1       -2.645  -6.463  -1.720  0.00  0.00    -0.000 C 
ATOM      8  C   LIG    1       -2.577  -7.984  -1.873  0.00  0.00    +0.030 C 
ENDBRANCH   6   7
ENDBRANCH   4   6
ENDBRANCH   1   4
BRANCH   1   9
ATOM      9  C   LIG    1       -2.703  -2.520  -0.210  0.00  0.00    +0.250 C 
BRANCH   9  10
ATOM     10  C   LIG    1       -2.858  -2.082  -1.668  0.00  0.00    -0.030 C 
ATOM     11  C   LIG    1       -1.590  -2.442  -2.446  0.00  0.00    +0.040 C 
BRANCH  10  12
ATOM     12  C   LIG    1       -3.078  -0.569  -1.726  0.00  0.00    +0.040 C 
BRANCH  12  14
ATOM     13  C   LIG    1       -3.577   1.364  -3.228  0.00  0.00    +0.020 C 
ATOM     14  C   LIG    1       -3.357  -0.148  -3.170  0.00  0.00    +0.000 C 
ENDBRANCH  12  14
ENDBRANCH  10  12
ENDBRANCH   9  10
ENDBRANCH   1   9
TORSDOF 7
ENDMDL
MODEL      151
REMARK  Name = ZINC001171480071
REMARK                            x       y       z     vdW  Elec       q    Type
REMARK                         _______ _______ _______ _____ _____    ______ ____
ROOT
ATOM      1  C   LIG    1        2.215   0.237   1.259  0.00  0.00    +0.240 C 
ENDROOT
BRANCH   1   8
ATOM      2  C   LIG    1        0.304   0.243   3.480  0.00  0.00    +0.020 C 
ATOM      3  C   LIG    1       -0.164   0.253   2.024  0.00  0.00    -0.010 C 
ATOM      4  C   LIG    1       -1.515  -0.457   1.917  0.00  0.00    +0.020 C 
ATOM      5  C   LIG    1       -1.983  -0.446   0.460  0.00  0.00    +0.010 C 
ATOM      6  C   LIG    1       -0.956  -1.172  -0.411  0.00  0.00    +0.020 C 
ATOM      7  C   LIG    1        0.395  -0.463  -0.304  0.00  0.00    +0.030 C 
ATOM      8  C   LIG    1        0.863  -0.473   1.153  0.00  0.00    -0.020 C 
ENDBRANCH   1   8
BRANCH   1   9
ATOM      9  N   LIG    1        2.928  -0.244   2.450  0.00  0.00    -0.390 N 
ATOM     10  C   LIG    1        3.271  -1.661   2.277  0.00  0.00    +0.320 C 
ATOM     11  H   LIG    1        2.337  -0.137   3.261  0.00  0.00    +0.420 HD
BRANCH   9  12
ATOM     12  C   LIG    1        4.157   0.539   2.634  0.00  0.00    +0.050 C 
ATOM     13  C   LIG    1        5.053   0.377   1.403  0.00  0.00    +0.080 C 
ATOM     14  C   LIG    1        4.900   0.038   3.874  0.00  0.00    +0.090 C 
ATOM     15  C   LIG    1        3.800   2.015   2.814  0.00  0.00    +0.090 C 
ENDBRANCH   9  12
ENDBRANCH   1   9
TORSDOF 3
ENDMDL
MODEL      152
REMARK  Name = ZINC000769984048
REMARK                            x       y       z     vdW  Elec       q    Type
REMARK                         _______ _______ _______ _____ _____    ______ ____
ROOT
ATOM      1  N   LIG    1       -4.205  -4.631   0.017  0.00  0.00    -0.370 N 
ATOM      2  C   LIG    1       -4.879  -4.275  -1.252  0.00  0.00    +0.250 C 
ATOM      3  C   LIG    1       -5.788  -5.488  -1.573  0.00  0.00    +0.080 C 
ATOM      4  C   LIG    1       -4.911  -6.676  -1.093  0.00  0.00    +0.090 C 
ATOM      5  C   LIG    1       -4.192  -6.095   0.134  0.00  0.00    +0.010 C 
ATOM      6  C   LIG    1       -2.826  -6.717   0.433  0.00  0.00    +0.080 C 
ATOM      7  C   LIG    1       -3.197  -6.612   1.923  0.00  0.00    +0.030 C 
ATOM      8  C   LIG    1       -4.671  -6.647   1.480  0.00  0.00    +0.080 C 
ATOM      9  H   LIG    1       -4.710  -4.232   0.794  0.00  0.00    +0.420 HD
ENDROOT
BRANCH   1  10
ATOM     10  C   LIG    1       -2.827  -4.123   0.007  0.00  0.00    +0.250 C 
BRANCH  10  11
ATOM     11  C   LIG    1       -2.848  -2.593   0.015  0.00  0.00    +0.030 C 
BRANCH  11  12
ATOM     12  C   LIG    1       -1.413  -2.063   0.004  0.00  0.00    +0.020 C 
BRANCH  12  13
ATOM     13  C   LIG    1       -1.433  -0.534   0.013  0.00  0.00    +0.020 C 
BRANCH  13  15
ATOM     14  C   LIG    1       -0.019   1.526   0.010  0.00  0.00    +0.020 C 
ATOM     15  C   LIG    1        0.002  -0.004   0.002  0.00  0.00    -0.010 C 
ENDBRANCH  13  15
ENDBRANCH  12  13
ENDBRANCH  11  12
ENDBRANCH  10  11
ENDBRANCH   1  10
TORSDOF 5
ENDMDL
MODEL      153
REMARK  Name = ZINC000683527432
REMARK                            x       y       z     vdW  Elec       q    Type
REMARK                         _______ _______ _______ _____ _____    ______ ____
ROOT
ATOM      1  N   LIG    1       -3.779  -2.560  -0.389  0.00  0.00    -0.380 N 
ATOM      2  H   LIG    1       -4.447  -1.953  -0.841  0.00  0.00    +0.420 HD
ENDROOT
BRANCH   1   3
ATOM      3  C   LIG    1       -3.289  -1.922   0.840  0.00  0.00    +0.160 C 
ATOM      4  C   LIG    1       -2.828  -0.497   0.525  0.00  0.00    +0.090 C 
ATOM      5  C   LIG    1       -2.113  -2.726   1.398  0.00  0.00    +0.090 C 
ENDBRANCH   1   3
BRANCH   1   6
ATOM      6  C   LIG    1       -2.651  -2.808  -1.296  0.00  0.00    +0.250 C 
BRANCH   6   7
ATOM      7  C   LIG    1       -2.261  -1.503  -1.994  0.00  0.00    +0.020 C 
BRANCH   7   9
ATOM      8  C   LIG    1       -0.952  -0.516  -3.879  0.00  0.00    +0.040 C 
ATOM      9  C   LIG    1       -1.247  -1.799  -3.101  0.00  0.00    -0.010 C 
ATOM     10  C   LIG    1        0.047  -2.328  -2.479  0.00  0.00    +0.020 C 
ENDBRANCH   7   9
ENDBRANCH   6   7
ENDBRANCH   1   6
BRANCH   1  11
ATOM     11  C   LIG    1       -4.427  -3.835  -0.053  0.00  0.00    +0.260 C 
BRANCH  11  12
ATOM     12  C   LIG    1       -5.714  -3.564   0.727  0.00  0.00    -0.040 C 
ATOM     13  C   LIG    1       -6.921  -3.239  -0.169  0.00  0.00    +0.020 C 
ATOM     14  C   LIG    1       -7.764  -4.096   0.790  0.00  0.00    +0.030 C 
ATOM     15  C   LIG    1       -6.465  -4.840   1.141  0.00  0.00    +0.040 C 
ENDBRANCH  11  12
ENDBRANCH   1  11
TORSDOF 6
ENDMDL
MODEL      154
REMARK  Name = ZINC000308287460
REMARK                            x       y       z     vdW  Elec       q    Type
REMARK                         _______ _______ _______ _____ _____    ______ ____
ROOT
ATOM      1  N   LIG    1        2.942  -2.114   2.479  0.00  0.00    -0.390 N 
ATOM      2  C   LIG    1        2.993  -0.695   2.853  0.00  0.00    +0.310 C 
ATOM      3  H   LIG    1        3.451  -2.255   1.619  0.00  0.00    +0.420 HD
ENDROOT
BRANCH   1   4
ATOM      4  C   LIG    1        1.542  -2.521   2.292  0.00  0.00    +0.160 C 
ATOM      5  C   LIG    1        0.797  -2.413   3.623  0.00  0.00    +0.080 C 
BRANCH   4   6
ATOM      6  C   LIG    1        1.493  -3.967   1.795  0.00  0.00    +0.050 C 
BRANCH   6   7
ATOM      7  C   LIG    1        2.135  -4.052   0.409  0.00  0.00    +0.000 C 
BRANCH   7   9
ATOM      8  C   LIG    1        2.781  -5.593  -1.448  0.00  0.00    +0.010 C 
ATOM      9  C   LIG    1        2.139  -5.508  -0.062  0.00  0.00    +0.020 C 
ENDBRANCH   7   9
ENDBRANCH   6   7
ENDBRANCH   4   6
ENDBRANCH   1   4
BRANCH   1  10
ATOM     10  C   LIG    1        3.548  -2.924   3.545  0.00  0.00    +0.240 C 
BRANCH  10  11
ATOM     11  C   LIG    1        5.032  -2.574   3.669  0.00  0.00    -0.030 C 
ATOM     12  C   LIG    1        5.627  -3.299   4.878  0.00  0.00    +0.070 C 
BRANCH  11  13
ATOM     13  C   LIG    1        5.767  -3.009   2.400  0.00  0.00    +0.000 C 
ATOM     14  C   LIG    1        7.224  -2.549   2.471  0.00  0.00    +0.040 C 
ENDBRANCH  11  13
ENDBRANCH  10  11
ENDBRANCH   1  10
TORSDOF 7
ENDMDL
MODEL      155
REMARK  Name = ZINC000308287459
REMARK                            x       y       z     vdW  Elec       q    Type
REMARK                         _______ _______ _______ _____ _____    ______ ____
ROOT
ATOM      1  N   LIG    1        0.843  -2.064   3.561  0.00  0.00    -0.390 N 
ATOM      2  C   LIG    1        1.596  -2.363   4.786  0.00  0.00    +0.310 C 
ATOM      3  H   LIG    1       -0.048  -2.537   3.590  0.00  0.00    +0.420 HD
ENDROOT
BRANCH   1   4
ATOM      4  C   LIG    1        1.605  -2.526   2.393  0.00  0.00    +0.160 C 
ATOM      5  C   LIG    1        3.005  -1.911   2.421  0.00  0.00    +0.080 C 
BRANCH   4   6
ATOM      6  C   LIG    1        1.717  -4.051   2.428  0.00  0.00    +0.050 C 
BRANCH   6   7
ATOM      7  C   LIG    1        0.326  -4.669   2.271  0.00  0.00    -0.000 C 
BRANCH   7   9
ATOM      8  C   LIG    1       -0.941  -6.808   2.022  0.00  0.00    +0.010 C 
ATOM      9  C   LIG    1        0.450  -6.191   2.178  0.00  0.00    +0.020 C 
ENDBRANCH   7   9
ENDBRANCH   6   7
ENDBRANCH   4   6
ENDBRANCH   1   4
BRANCH   1  10
ATOM     10  C   LIG    1        0.625  -0.614   3.461  0.00  0.00    +0.250 C 
BRANCH  10  11
ATOM     11  C   LIG    1       -0.294  -0.158   4.596  0.00  0.00    -0.030 C 
ATOM     12  C   LIG    1       -1.677  -0.788   4.417  0.00  0.00    +0.040 C 
BRANCH  11  13
ATOM     13  C   LIG    1       -0.420   1.367   4.568  0.00  0.00    +0.020 C 
ATOM     14  C   LIG    1       -1.237   1.833   5.774  0.00  0.00    +0.030 C 
ENDBRANCH  11  13
ENDBRANCH  10  11
ENDBRANCH   1  10
TORSDOF 7
ENDMDL
MODEL      156
REMARK  Name = ZINC000308287462
REMARK                            x       y       z     vdW  Elec       q    Type
REMARK                         _______ _______ _______ _____ _____    ______ ____
ROOT
ATOM      1  N   LIG    1        3.049  -2.254   2.391  0.00  0.00    -0.390 N 
ATOM      2  C   LIG    1        3.173  -0.798   2.545  0.00  0.00    +0.310 C 
ATOM      3  H   LIG    1        3.601  -2.558   1.603  0.00  0.00    +0.420 HD
ENDROOT
BRANCH   1   4
ATOM      4  C   LIG    1        1.640  -2.604   2.165  0.00  0.00    +0.160 C 
ATOM      5  C   LIG    1        0.820  -2.244   3.406  0.00  0.00    +0.080 C 
BRANCH   4   6
ATOM      6  C   LIG    1        1.524  -4.105   1.896  0.00  0.00    +0.050 C 
BRANCH   6   7
ATOM      7  C   LIG    1        2.264  -4.449   0.601  0.00  0.00    -0.010 C 
BRANCH   7   9
ATOM      8  C   LIG    1        2.894  -6.296  -0.959  0.00  0.00    +0.010 C 
ATOM      9  C   LIG    1        2.154  -5.952   0.336  0.00  0.00    +0.020 C 
ENDBRANCH   7   9
ENDBRANCH   6   7
ENDBRANCH   4   6
ENDBRANCH   1   4
BRANCH   1  10
ATOM     10  C   LIG    1        3.529  -2.918   3.611  0.00  0.00    +0.240 C 
BRANCH  10  11
ATOM     11  C   LIG    1        5.022  -2.638   3.789  0.00  0.00    -0.030 C 
ATOM     12  C   LIG    1        5.803  -3.284   2.643  0.00  0.00    +0.040 C 
BRANCH  11  13
ATOM     13  C   LIG    1        5.495  -3.224   5.122  0.00  0.00    +0.020 C 
ATOM     14  C   LIG    1        6.956  -2.838   5.359  0.00  0.00    +0.030 C 
ENDBRANCH  11  13
ENDBRANCH  10  11
ENDBRANCH   1  10
TORSDOF 7
ENDMDL
MODEL      157
REMARK  Name = ZINC000308287461
REMARK                            x       y       z     vdW  Elec       q    Type
REMARK                         _______ _______ _______ _____ _____    ______ ____
ROOT
ATOM      1  N   LIG    1        0.777  -2.093   3.622  0.00  0.00    -0.390 N 
ATOM      2  C   LIG    1        1.681  -2.538   4.691  0.00  0.00    +0.310 C 
ATOM      3  H   LIG    1       -0.156  -2.428   3.808  0.00  0.00    +0.420 HD
ENDROOT
BRANCH   1   4
ATOM      4  C   LIG    1        1.242  -2.627   2.335  0.00  0.00    +0.160 C 
ATOM      5  C   LIG    1        2.698  -2.215   2.107  0.00  0.00    +0.090 C 
BRANCH   4   6
ATOM      6  C   LIG    1        1.140  -4.154   2.349  0.00  0.00    +0.050 C 
BRANCH   6   7
ATOM      7  C   LIG    1       -0.330  -4.566   2.458  0.00  0.00    -0.000 C 
BRANCH   7   9
ATOM      8  C   LIG    1       -1.912  -6.499   2.452  0.00  0.00    +0.010 C 
ATOM      9  C   LIG    1       -0.442  -6.087   2.344  0.00  0.00    +0.020 C 
ENDBRANCH   7   9
ENDBRANCH   6   7
ENDBRANCH   4   6
ENDBRANCH   1   4
BRANCH   1  10
ATOM     10  C   LIG    1        0.768  -0.625   3.568  0.00  0.00    +0.250 C 
BRANCH  10  11
ATOM     11  C   LIG    1       -0.274  -0.158   2.550  0.00  0.00    -0.030 C 
ATOM     12  C   LIG    1       -1.671  -0.547   3.035  0.00  0.00    +0.040 C 
BRANCH  11  13
ATOM     13  C   LIG    1       -0.192   1.362   2.396  0.00  0.00    +0.020 C 
ATOM     14  C   LIG    1       -1.146   1.815   1.289  0.00  0.00    +0.030 C 
ENDBRANCH  11  13
ENDBRANCH  10  11
ENDBRANCH   1  10
TORSDOF 7
ENDMDL
MODEL      158
REMARK  Name = ZINC000683527931
REMARK                            x       y       z     vdW  Elec       q    Type
REMARK                         _______ _______ _______ _____ _____    ______ ____
ROOT
ATOM      1  N   LIG    1        1.593  -2.730  -2.338  0.00  0.00    -0.380 N 
ATOM      2  H   LIG    1        2.584  -2.546  -2.385  0.00  0.00    +0.420 HD
ENDROOT
BRANCH   1   3
ATOM      3  C   LIG    1        0.931  -2.155  -3.516  0.00  0.00    +0.160 C 
ATOM      4  C   LIG    1        1.294  -0.673  -3.633  0.00  0.00    +0.090 C 
ATOM      5  C   LIG    1       -0.585  -2.298  -3.371  0.00  0.00    +0.080 C 
ENDBRANCH   1   3
BRANCH   1   6
ATOM      6  C   LIG    1        1.040  -2.121  -1.120  0.00  0.00    +0.240 C 
BRANCH   6   7
ATOM      7  C   LIG    1        1.833  -2.604   0.096  0.00  0.00    -0.030 C 
ATOM      8  C   LIG    1        3.272  -2.093   0.002  0.00  0.00    +0.040 C 
BRANCH   7  10
ATOM      9  C   LIG    1        1.901  -2.650   2.593  0.00  0.00    +0.030 C 
ATOM     10  C   LIG    1        1.184  -2.067   1.373  0.00  0.00    +0.020 C 
ENDBRANCH   7  10
ENDBRANCH   6   7
ENDBRANCH   1   6
BRANCH   1  11
ATOM     11  C   LIG    1        1.365  -4.181  -2.307  0.00  0.00    +0.250 C 
BRANCH  11  12
ATOM     12  C   LIG    1        2.073  -4.833  -3.496  0.00  0.00    -0.040 C 
ATOM     13  C   LIG    1        3.545  -5.183  -3.220  0.00  0.00    +0.020 C 
ATOM     14  C   LIG    1        3.299  -6.487  -3.997  0.00  0.00    +0.030 C 
ATOM     15  C   LIG    1        1.817  -6.345  -3.611  0.00  0.00    +0.040 C 
ENDBRANCH  11  12
ENDBRANCH   1  11
TORSDOF 6
ENDMDL
MODEL      159
REMARK  Name = ZINC000683527930
REMARK                            x       y       z     vdW  Elec       q    Type
REMARK                         _______ _______ _______ _____ _____    ______ ____
ROOT
ATOM      1  N   LIG    1        1.731  -2.507  -2.752  0.00  0.00    -0.380 N 
ATOM      2  H   LIG    1        2.595  -2.001  -2.871  0.00  0.00    +0.420 HD
ENDROOT
BRANCH   1   3
ATOM      3  C   LIG    1        0.682  -1.886  -3.571  0.00  0.00    +0.160 C 
ATOM      4  C   LIG    1        0.563  -0.404  -3.209  0.00  0.00    +0.080 C 
ATOM      5  C   LIG    1       -0.653  -2.584  -3.306  0.00  0.00    +0.090 C 
ENDBRANCH   1   3
BRANCH   1   6
ATOM      6  C   LIG    1        1.333  -2.472  -1.338  0.00  0.00    +0.250 C 
BRANCH   6   7
ATOM      7  C   LIG    1        1.780  -1.147  -0.716  0.00  0.00    -0.020 C 
ATOM      8  C   LIG    1        3.309  -1.076  -0.712  0.00  0.00    +0.040 C 
BRANCH   7  10
ATOM      9  C   LIG    1        1.602   0.316   1.302  0.00  0.00    +0.030 C 
ATOM     10  C   LIG    1        1.262  -1.058   0.721  0.00  0.00    +0.020 C 
ENDBRANCH   7  10
ENDBRANCH   6   7
ENDBRANCH   1   6
BRANCH   1  11
ATOM     11  C   LIG    1        1.919  -3.902  -3.172  0.00  0.00    +0.250 C 
BRANCH  11  12
ATOM     12  C   LIG    1        2.460  -3.935  -4.603  0.00  0.00    -0.040 C 
ATOM     13  C   LIG    1        3.993  -3.843  -4.683  0.00  0.00    +0.020 C 
ATOM     14  C   LIG    1        3.919  -4.890  -5.807  0.00  0.00    +0.030 C 
ATOM     15  C   LIG    1        2.594  -5.355  -5.178  0.00  0.00    +0.040 C 
ENDBRANCH  11  12
ENDBRANCH   1  11
TORSDOF 6
ENDMDL
MODEL      160
REMARK  Name = ZINC000308293495
REMARK                            x       y       z     vdW  Elec       q    Type
REMARK                         _______ _______ _______ _____ _____    ______ ____
ROOT
ATOM      1  N   LIG    1       -2.176  -0.132   1.408  0.00  0.00    -0.380 N 
ATOM      2  H   LIG    1       -1.649  -0.507   2.183  0.00  0.00    +0.420 HD
ENDROOT
BRANCH   1   3
ATOM      3  C   LIG    1       -3.526  -0.711   1.410  0.00  0.00    +0.230 C 
ATOM      4  C   LIG    1       -3.427  -2.238   1.418  0.00  0.00    +0.080 C 
ENDBRANCH   1   3
BRANCH   1   5
ATOM      5  C   LIG    1       -1.501  -0.469   0.148  0.00  0.00    +0.160 C 
BRANCH   5   7
ATOM      6  C   LIG    1       -3.370   0.435  -1.242  0.00  0.00    +0.030 C 
ATOM      7  C   LIG    1       -1.879   0.557  -0.923  0.00  0.00    +0.050 C 
ENDBRANCH   5   7
BRANCH   5   8
ATOM      8  C   LIG    1        0.014  -0.450   0.360  0.00  0.00    +0.050 C 
ATOM      9  C   LIG    1        0.410  -1.580   1.312  0.00  0.00    +0.030 C 
ENDBRANCH   5   8
ENDBRANCH   1   5
BRANCH   1  10
ATOM     10  C   LIG    1       -2.269   1.328   1.540  0.00  0.00    +0.250 C 
BRANCH  10  11
ATOM     11  C   LIG    1       -2.837   1.681   2.915  0.00  0.00    -0.030 C 
ATOM     12  C   LIG    1       -1.855   1.239   4.002  0.00  0.00    +0.040 C 
BRANCH  11  13
ATOM     13  C   LIG    1       -3.050   3.193   3.006  0.00  0.00    +0.020 C 
ATOM     14  C   LIG    1       -3.734   3.534   4.332  0.00  0.00    +0.030 C 
ENDBRANCH  11  13
ENDBRANCH  10  11
ENDBRANCH   1  10
TORSDOF 7
ENDMDL
MODEL      161
REMARK  Name = ZINC000308293494
REMARK                            x       y       z     vdW  Elec       q    Type
REMARK                         _______ _______ _______ _____ _____    ______ ____
ROOT
ATOM      1  N   LIG    1       -2.114  -0.698   1.267  0.00  0.00    -0.380 N 
ATOM      2  H   LIG    1       -1.446  -0.945   1.982  0.00  0.00    +0.420 HD
ENDROOT
BRANCH   1   3
ATOM      3  C   LIG    1       -3.213  -1.673   1.265  0.00  0.00    +0.240 C 
ATOM      4  C   LIG    1       -3.796  -1.786   2.675  0.00  0.00    +0.080 C 
ENDBRANCH   1   3
BRANCH   1   5
ATOM      5  C   LIG    1       -1.452  -0.704  -0.044  0.00  0.00    +0.160 C 
BRANCH   5   7
ATOM      6  C   LIG    1        0.215  -2.405   0.713  0.00  0.00    +0.030 C 
ATOM      7  C   LIG    1       -0.873  -2.095  -0.317  0.00  0.00    +0.050 C 
ENDBRANCH   5   7
BRANCH   5   8
ATOM      8  C   LIG    1       -2.469  -0.353  -1.131  0.00  0.00    +0.050 C 
ATOM      9  C   LIG    1       -2.464   1.159  -1.366  0.00  0.00    +0.040 C 
ENDBRANCH   5   8
ENDBRANCH   1   5
BRANCH   1  10
ATOM     10  C   LIG    1       -2.649   0.643   1.539  0.00  0.00    +0.250 C 
BRANCH  10  11
ATOM     11  C   LIG    1       -1.498   1.649   1.596  0.00  0.00    -0.020 C 
ATOM     12  C   LIG    1       -0.565   1.292   2.755  0.00  0.00    +0.040 C 
BRANCH  11  13
ATOM     13  C   LIG    1       -2.061   3.056   1.809  0.00  0.00    +0.020 C 
ATOM     14  C   LIG    1       -0.922   4.076   1.742  0.00  0.00    +0.030 C 
ENDBRANCH  11  13
ENDBRANCH  10  11
ENDBRANCH   1  10
TORSDOF 7
ENDMDL
MODEL      162
REMARK  Name = ZINC000683697703
REMARK                            x       y       z     vdW  Elec       q    Type
REMARK                         _______ _______ _______ _____ _____    ______ ____
ROOT
ATOM      1  N   LIG    1       -1.615  -0.259   0.059  0.00  0.00    -0.380 N 
ATOM      2  H   LIG    1       -2.174   0.174   0.779  0.00  0.00    +0.420 HD
ENDROOT
BRANCH   1   4
ATOM      3  C   LIG    1        0.631  -0.485  -0.891  0.00  0.00    +0.080 C 
ATOM      4  C   LIG    1       -0.227   0.211   0.167  0.00  0.00    +0.240 C 
ENDBRANCH   1   4
BRANCH   1   5
ATOM      5  C   LIG    1       -1.651  -1.719   0.224  0.00  0.00    +0.160 C 
ATOM      6  C   LIG    1       -3.104  -2.196   0.218  0.00  0.00    +0.080 C 
BRANCH   5   7
ATOM      7  C   LIG    1       -0.995  -2.098   1.553  0.00  0.00    -0.010 C 
ATOM      8  C   LIG    1       -0.978  -3.622   1.697  0.00  0.00    +0.070 C 
ATOM      9  C   LIG    1       -1.790  -1.486   2.708  0.00  0.00    +0.040 C 
ENDBRANCH   5   7
ENDBRANCH   1   5
BRANCH   1  10
ATOM     10  C   LIG    1       -2.152   0.098  -1.260  0.00  0.00    +0.270 C 
BRANCH  10  11
ATOM     11  C   LIG    1       -2.232   1.621  -1.383  0.00  0.00    -0.120 C 
ATOM     12  C   LIG    1       -0.949   2.263  -1.935  0.00  0.00    +0.040 C 
ATOM     13  C   LIG    1       -1.547   2.065  -3.338  0.00  0.00    +0.010 C 
ATOM     14  C   LIG    1       -2.759   2.292  -0.113  0.00  0.00    +0.050 C 
ATOM     15  C   LIG    1       -2.930   2.099  -2.667  0.00  0.00    +0.060 C 
ENDBRANCH  10  11
ENDBRANCH   1  10
TORSDOF 5
ENDMDL
MODEL      163
REMARK  Name = ZINC000683696426
REMARK                            x       y       z     vdW  Elec       q    Type
REMARK                         _______ _______ _______ _____ _____    ______ ____
ROOT
ATOM      1  N   LIG    1        0.620  -0.706  -0.780  0.00  0.00    -0.380 N 
ATOM      2  C   LIG    1        1.996  -0.293  -1.085  0.00  0.00    +0.310 C 
ATOM      3  H   LIG    1        0.047  -0.603  -1.604  0.00  0.00    +0.420 HD
ENDROOT
BRANCH   1   5
ATOM      4  C   LIG    1        1.204   0.479   1.282  0.00  0.00    +0.090 C 
ATOM      5  C   LIG    1        0.084   0.135   0.298  0.00  0.00    +0.170 C 
BRANCH   5   6
ATOM      6  C   LIG    1       -0.486   1.425  -0.296  0.00  0.00    -0.080 C 
ATOM      7  C   LIG    1       -1.052   2.297   0.826  0.00  0.00    +0.070 C 
ATOM      8  C   LIG    1       -1.600   1.081  -1.286  0.00  0.00    +0.060 C 
ATOM      9  C   LIG    1        0.625   2.185  -1.023  0.00  0.00    +0.050 C 
ENDBRANCH   5   6
ENDBRANCH   1   5
BRANCH   1  10
ATOM     10  C   LIG    1        0.614  -2.112  -0.353  0.00  0.00    +0.270 C 
BRANCH  10  11
ATOM     11  C   LIG    1        1.042  -3.002  -1.522  0.00  0.00    -0.120 C 
ATOM     12  C   LIG    1        2.563  -3.215  -1.609  0.00  0.00    +0.030 C 
ATOM     13  C   LIG    1        2.366  -4.429  -0.687  0.00  0.00    +0.010 C 
ATOM     14  C   LIG    1        0.402  -2.588  -2.849  0.00  0.00    +0.050 C 
ATOM     15  C   LIG    1        0.928  -4.506  -1.225  0.00  0.00    +0.060 C 
ENDBRANCH  10  11
ENDBRANCH   1  10
TORSDOF 4
ENDMDL
MODEL      164
REMARK  Name = ZINC000683696735
REMARK                            x       y       z     vdW  Elec       q    Type
REMARK                         _______ _______ _______ _____ _____    ______ ____
ROOT
ATOM      1  N   LIG    1        0.076   0.066   2.397  0.00  0.00    -0.380 N 
ATOM      2  H   LIG    1       -0.874   0.190   2.713  0.00  0.00    +0.420 HD
ENDROOT
BRANCH   1   3
ATOM      3  C   LIG    1        0.602   1.349   1.911  0.00  0.00    +0.160 C 
ATOM      4  C   LIG    1       -0.357   1.933   0.873  0.00  0.00    +0.090 C 
ATOM      5  C   LIG    1        1.974   1.127   1.271  0.00  0.00    +0.090 C 
ENDBRANCH   1   3
BRANCH   1   6
ATOM      6  C   LIG    1        0.105  -0.919   1.308  0.00  0.00    +0.240 C 
BRANCH   6   8
ATOM      7  C   LIG    1       -2.015  -1.918   2.175  0.00  0.00    +0.040 C 
ATOM      8  C   LIG    1       -0.568  -2.213   1.773  0.00  0.00    -0.030 C 
ATOM      9  C   LIG    1       -0.554  -3.233   0.632  0.00  0.00    +0.070 C 
ENDBRANCH   6   8
ENDBRANCH   1   6
BRANCH   1  10
ATOM     10  C   LIG    1        0.904  -0.412   3.513  0.00  0.00    +0.270 C 
BRANCH  10  11
ATOM     11  C   LIG    1        0.156  -0.201   4.830  0.00  0.00    -0.120 C 
ATOM     12  C   LIG    1       -0.747  -1.383   5.222  0.00  0.00    +0.030 C 
ATOM     13  C   LIG    1        0.473  -1.973   5.948  0.00  0.00    +0.010 C 
ATOM     14  C   LIG    1       -0.543   1.158   4.906  0.00  0.00    +0.050 C 
ATOM     15  C   LIG    1        0.995  -0.532   6.075  0.00  0.00    +0.060 C 
ENDBRANCH  10  11
ENDBRANCH   1  10
TORSDOF 5
ENDMDL
MODEL      165
REMARK  Name = ZINC000683697704
REMARK                            x       y       z     vdW  Elec       q    Type
REMARK                         _______ _______ _______ _____ _____    ______ ____
ROOT
ATOM      1  N   LIG    1       -1.440  -0.489   0.131  0.00  0.00    -0.380 N 
ATOM      2  H   LIG    1       -1.912  -0.220   0.981  0.00  0.00    +0.420 HD
ENDROOT
BRANCH   1   4
ATOM      3  C   LIG    1       -0.910   1.885  -0.157  0.00  0.00    +0.080 C 
ATOM      4  C   LIG    1       -0.353   0.460  -0.146  0.00  0.00    +0.240 C 
ENDBRANCH   1   4
BRANCH   1   5
ATOM      5  C   LIG    1       -0.883  -1.839   0.287  0.00  0.00    +0.150 C 
ATOM      6  C   LIG    1       -0.027  -2.182  -0.934  0.00  0.00    +0.090 C 
BRANCH   5   7
ATOM      7  C   LIG    1       -0.017  -1.892   1.548  0.00  0.00    -0.020 C 
ATOM      8  C   LIG    1        0.601  -3.284   1.684  0.00  0.00    +0.070 C 
ATOM      9  C   LIG    1       -0.883  -1.595   2.774  0.00  0.00    +0.040 C 
ENDBRANCH   5   7
ENDBRANCH   1   5
BRANCH   1  10
ATOM     10  C   LIG    1       -2.395  -0.479  -0.985  0.00  0.00    +0.270 C 
BRANCH  10  11
ATOM     11  C   LIG    1       -3.771  -0.920  -0.481  0.00  0.00    -0.120 C 
ATOM     12  C   LIG    1       -4.566   0.204   0.203  0.00  0.00    +0.030 C 
ATOM     13  C   LIG    1       -5.126   0.547  -1.188  0.00  0.00    +0.010 C 
ATOM     14  C   LIG    1       -3.720  -2.218   0.328  0.00  0.00    +0.060 C 
ATOM     15  C   LIG    1       -4.856  -0.917  -1.572  0.00  0.00    +0.060 C 
ENDBRANCH  10  11
ENDBRANCH   1  10
TORSDOF 5
ENDMDL
MODEL      166
REMARK  Name = ZINC000683696425
REMARK                            x       y       z     vdW  Elec       q    Type
REMARK                         _______ _______ _______ _____ _____    ______ ____
ROOT
ATOM      1  N   LIG    1       -1.317  -0.842   0.457  0.00  0.00    -0.380 N 
ATOM      2  C   LIG    1       -1.599  -2.140  -0.170  0.00  0.00    +0.310 C 
ATOM      3  H   LIG    1       -1.792  -0.112  -0.054  0.00  0.00    +0.420 HD
ENDROOT
BRANCH   1   5
ATOM      4  C   LIG    1        0.437   0.692   1.210  0.00  0.00    +0.080 C 
ATOM      5  C   LIG    1        0.130  -0.592   0.437  0.00  0.00    +0.170 C 
BRANCH   5   6
ATOM      6  C   LIG    1        0.601  -0.440  -1.011  0.00  0.00    -0.080 C 
ATOM      7  C   LIG    1       -0.278   0.586  -1.728  0.00  0.00    +0.050 C 
ATOM      8  C   LIG    1        0.497  -1.789  -1.725  0.00  0.00    +0.050 C 
ATOM      9  C   LIG    1        2.056   0.034  -1.026  0.00  0.00    +0.070 C 
ENDBRANCH   5   6
ENDBRANCH   1   5
BRANCH   1  10
ATOM     10  C   LIG    1       -1.793  -0.856   1.847  0.00  0.00    +0.280 C 
BRANCH  10  11
ATOM     11  C   LIG    1       -3.309  -1.060   1.865  0.00  0.00    -0.120 C 
ATOM     12  C   LIG    1       -3.731  -2.536   1.942  0.00  0.00    +0.040 C 
ATOM     13  C   LIG    1       -3.679  -2.390   3.472  0.00  0.00    +0.020 C 
ATOM     14  C   LIG    1       -4.028  -0.271   0.769  0.00  0.00    +0.050 C 
ATOM     15  C   LIG    1       -3.937  -0.889   3.259  0.00  0.00    +0.060 C 
ENDBRANCH  10  11
ENDBRANCH   1  10
TORSDOF 4
ENDMDL
MODEL      167
REMARK  Name = ZINC000308309573
REMARK                            x       y       z     vdW  Elec       q    Type
REMARK                         _______ _______ _______ _____ _____    ______ ____
ROOT
ATOM      1  N   LIG    1        1.959  -2.226  -0.389  0.00  0.00    -0.380 N 
ATOM      2  H   LIG    1        1.387  -1.817  -1.112  0.00  0.00    +0.420 HD
ENDROOT
BRANCH   1   3
ATOM      3  C   LIG    1        2.046  -3.678  -0.597  0.00  0.00    +0.160 C 
ATOM      4  C   LIG    1        0.716  -4.194  -1.150  0.00  0.00    +0.090 C 
BRANCH   3   5
ATOM      5  C   LIG    1        2.346  -4.367   0.735  0.00  0.00    +0.050 C 
ATOM      6  C   LIG    1        3.748  -3.975   1.207  0.00  0.00    +0.030 C 
ENDBRANCH   3   5
ENDBRANCH   1   3
BRANCH   1   7
ATOM      7  C   LIG    1        3.306  -1.643  -0.441  0.00  0.00    +0.240 C 
ATOM      8  C   LIG    1        3.870  -1.787  -1.856  0.00  0.00    +0.080 C 
ENDBRANCH   1   7
BRANCH   1   9
ATOM      9  C   LIG    1        1.358  -1.955   0.923  0.00  0.00    +0.250 C 
BRANCH   9  10
ATOM     10  C   LIG    1        1.116  -0.452   1.072  0.00  0.00    -0.020 C 
BRANCH  10  12
ATOM     11  C   LIG    1       -0.081   1.522   0.115  0.00  0.00    +0.040 C 
ATOM     12  C   LIG    1        0.073   0.001   0.048  0.00  0.00    +0.000 C 
ENDBRANCH  10  12
BRANCH  10  13
ATOM     13  C   LIG    1        0.607  -0.155   2.484  0.00  0.00    +0.040 C 
ATOM     14  C   LIG    1        1.698  -0.493   3.502  0.00  0.00    +0.020 C 
ENDBRANCH  10  13
ENDBRANCH   9  10
ENDBRANCH   1   9
TORSDOF 7
ENDMDL
MODEL      168
REMARK  Name = ZINC000308309575
REMARK                            x       y       z     vdW  Elec       q    Type
REMARK                         _______ _______ _______ _____ _____    ______ ____
ROOT
ATOM      1  N   LIG    1        1.809  -2.084  -0.320  0.00  0.00    -0.380 N 
ATOM      2  H   LIG    1        1.315  -1.831  -1.163  0.00  0.00    +0.420 HD
ENDROOT
BRANCH   1   3
ATOM      3  C   LIG    1        1.980  -3.542  -0.272  0.00  0.00    +0.160 C 
ATOM      4  C   LIG    1        2.600  -3.938   1.070  0.00  0.00    +0.090 C 
BRANCH   3   5
ATOM      5  C   LIG    1        0.618  -4.221  -0.425  0.00  0.00    +0.050 C 
ATOM      6  C   LIG    1        0.052  -3.922  -1.815  0.00  0.00    +0.030 C 
ENDBRANCH   3   5
ENDBRANCH   1   3
BRANCH   1   7
ATOM      7  C   LIG    1        3.127  -1.435  -0.311  0.00  0.00    +0.240 C 
ATOM      8  C   LIG    1        3.877  -1.787  -1.597  0.00  0.00    +0.080 C 
ENDBRANCH   1   7
BRANCH   1   9
ATOM      9  C   LIG    1        1.038  -1.642   0.850  0.00  0.00    +0.250 C 
BRANCH   9  10
ATOM     10  C   LIG    1        0.752  -0.144   0.737  0.00  0.00    -0.020 C 
BRANCH  10  12
ATOM     11  C   LIG    1       -0.333   1.620  -0.661  0.00  0.00    +0.040 C 
ATOM     12  C   LIG    1       -0.157   0.113  -0.467  0.00  0.00    +0.000 C 
ENDBRANCH  10  12
BRANCH  10  13
ATOM     13  C   LIG    1        0.059   0.341   2.012  0.00  0.00    +0.040 C 
ATOM     14  C   LIG    1        1.019   0.211   3.196  0.00  0.00    +0.020 C 
ENDBRANCH  10  13
ENDBRANCH   9  10
ENDBRANCH   1   9
TORSDOF 7
ENDMDL
MODEL      169
REMARK  Name = ZINC000308311239
REMARK                            x       y       z     vdW  Elec       q    Type
REMARK                         _______ _______ _______ _____ _____    ______ ____
ROOT
ATOM      1  N   LIG    1        2.715  -2.005  -2.498  0.00  0.00    -0.380 N 
ATOM      2  C   LIG    1        3.407  -2.292  -3.762  0.00  0.00    +0.310 C 
ATOM      3  H   LIG    1        3.197  -2.463  -1.739  0.00  0.00    +0.420 HD
ENDROOT
BRANCH   1   4
ATOM      4  C   LIG    1        1.334  -2.502  -2.573  0.00  0.00    +0.160 C 
ATOM      5  C   LIG    1        0.644  -1.908  -3.802  0.00  0.00    +0.080 C 
BRANCH   4   6
ATOM      6  C   LIG    1        1.347  -4.028  -2.682  0.00  0.00    +0.050 C 
BRANCH   6   7
ATOM      7  C   LIG    1        1.922  -4.627  -1.397  0.00  0.00    -0.000 C 
BRANCH   7   9
ATOM      8  C   LIG    1        2.393  -6.751  -0.169  0.00  0.00    +0.010 C 
ATOM      9  C   LIG    1        1.818  -6.152  -1.454  0.00  0.00    +0.020 C 
ENDBRANCH   7   9
ENDBRANCH   6   7
ENDBRANCH   4   6
ENDBRANCH   1   4
BRANCH   1  10
ATOM     10  C   LIG    1        2.701  -0.555  -2.265  0.00  0.00    +0.240 C 
BRANCH  10  11
ATOM     11  C   LIG    1        4.131  -0.061  -2.038  0.00  0.00    +0.040 C 
BRANCH  11  12
ATOM     12  C   LIG    1        4.117   1.449  -1.795  0.00  0.00    -0.010 C 
ATOM     13  C   LIG    1        5.555   1.963  -1.692  0.00  0.00    +0.040 C 
ATOM     14  C   LIG    1        3.374   1.750  -0.492  0.00  0.00    +0.020 C 
ENDBRANCH  11  12
ENDBRANCH  10  11
ENDBRANCH   1  10
TORSDOF 7
ENDMDL
MODEL      170
REMARK  Name = ZINC000308311238
REMARK                            x       y       z     vdW  Elec       q    Type
REMARK                         _______ _______ _______ _____ _____    ______ ____
ROOT
ATOM      1  N   LIG    1        0.605  -2.253  -3.823  0.00  0.00    -0.380 N 
ATOM      2  C   LIG    1        0.641  -0.795  -3.998  0.00  0.00    +0.310 C 
ATOM      3  H   LIG    1       -0.346  -2.578  -3.911  0.00  0.00    +0.420 HD
ENDROOT
BRANCH   1   4
ATOM      4  C   LIG    1        1.120  -2.600  -2.492  0.00  0.00    +0.160 C 
ATOM      5  C   LIG    1        2.595  -2.206  -2.398  0.00  0.00    +0.080 C 
BRANCH   4   6
ATOM      6  C   LIG    1        0.979  -4.107  -2.268  0.00  0.00    +0.050 C 
BRANCH   6   7
ATOM      7  C   LIG    1       -0.503  -4.487  -2.269  0.00  0.00    +0.010 C 
BRANCH   7   9
ATOM      8  C   LIG    1       -2.127  -6.371  -2.037  0.00  0.00    +0.010 C 
ATOM      9  C   LIG    1       -0.644  -5.992  -2.036  0.00  0.00    +0.020 C 
ENDBRANCH   7   9
ENDBRANCH   6   7
ENDBRANCH   4   6
ENDBRANCH   1   4
BRANCH   1  10
ATOM     10  C   LIG    1        1.437  -2.890  -4.852  0.00  0.00    +0.240 C 
BRANCH  10  11
ATOM     11  C   LIG    1        0.838  -2.619  -6.234  0.00  0.00    +0.040 C 
BRANCH  11  12
ATOM     12  C   LIG    1        1.704  -3.282  -7.305  0.00  0.00    -0.010 C 
ATOM     13  C   LIG    1        1.177  -2.908  -8.692  0.00  0.00    +0.040 C 
ATOM     14  C   LIG    1        1.653  -4.802  -7.134  0.00  0.00    +0.020 C 
ENDBRANCH  11  12
ENDBRANCH  10  11
ENDBRANCH   1  10
TORSDOF 7
ENDMDL
MODEL      171
REMARK  Name = ZINC000308328643
REMARK                            x       y       z     vdW  Elec       q    Type
REMARK                         _______ _______ _______ _____ _____    ______ ____
ROOT
ATOM      1  N   LIG    1        0.650  -2.433  -1.590  0.00  0.00    -0.380 N 
ATOM      2  H   LIG    1        1.034  -2.660  -0.685  0.00  0.00    +0.420 HD
ENDROOT
BRANCH   1   3
ATOM      3  C   LIG    1        0.031  -1.102  -1.541  0.00  0.00    +0.240 C 
BRANCH   3   5
ATOM      4  C   LIG    1        0.439   1.322  -1.092  0.00  0.00    +0.060 C 
ATOM      5  C   LIG    1        1.073  -0.070  -1.104  0.00  0.00    +0.030 C 
ENDBRANCH   3   5
ENDBRANCH   1   3
BRANCH   1   6
ATOM      6  C   LIG    1        1.725  -2.436  -2.592  0.00  0.00    +0.160 C 
BRANCH   6   7
ATOM      7  C   LIG    1        1.139  -2.116  -3.969  0.00  0.00    +0.050 C 
ATOM      8  C   LIG    1        1.199  -0.607  -4.210  0.00  0.00    +0.040 C 
ENDBRANCH   6   7
BRANCH   6   9
ATOM      9  C   LIG    1        2.385  -3.816  -2.627  0.00  0.00    +0.050 C 
ATOM     10  C   LIG    1        3.047  -4.099  -1.276  0.00  0.00    +0.020 C 
ENDBRANCH   6   9
ENDBRANCH   1   6
BRANCH   1  11
ATOM     11  C   LIG    1       -0.363  -3.431  -1.956  0.00  0.00    +0.240 C 
BRANCH  11  12
ATOM     12  C   LIG    1       -1.397  -3.545  -0.834  0.00  0.00    -0.030 C 
ATOM     13  C   LIG    1       -0.718  -4.070   0.433  0.00  0.00    +0.030 C 
ATOM     14  C   LIG    1       -2.505  -4.511  -1.256  0.00  0.00    +0.070 C 
ENDBRANCH  11  12
ENDBRANCH   1  11
TORSDOF 7
ENDMDL
MODEL      172
REMARK  Name = ZINC000683825698
REMARK                            x       y       z     vdW  Elec       q    Type
REMARK                         _______ _______ _______ _____ _____    ______ ____
ROOT
ATOM      1  N   LIG    1       -2.811  -3.667  -0.330  0.00  0.00    -0.380 N 
ATOM      2  H   LIG    1       -2.293  -3.780   0.529  0.00  0.00    +0.420 HD
ENDROOT
BRANCH   1   3
ATOM      3  C   LIG    1       -2.140  -4.409  -1.406  0.00  0.00    +0.160 C 
ATOM      4  C   LIG    1       -3.001  -4.364  -2.670  0.00  0.00    +0.090 C 
ATOM      5  C   LIG    1       -1.942  -5.864  -0.976  0.00  0.00    +0.090 C 
ENDBRANCH   1   3
BRANCH   1   6
ATOM      6  C   LIG    1       -2.872  -2.243  -0.682  0.00  0.00    +0.240 C 
BRANCH   6   7
ATOM      7  C   LIG    1       -1.455  -1.668  -0.732  0.00  0.00    +0.030 C 
BRANCH   7   8
ATOM      8  C   LIG    1       -1.514  -0.202  -1.167  0.00  0.00    +0.020 C 
BRANCH   8  10
ATOM      9  C   LIG    1       -0.156   1.838  -1.652  0.00  0.00    +0.020 C 
ATOM     10  C   LIG    1       -0.097   0.372  -1.217  0.00  0.00    +0.000 C 
ENDBRANCH   8  10
ENDBRANCH   7   8
ENDBRANCH   6   7
ENDBRANCH   1   6
BRANCH   1  11
ATOM     11  C   LIG    1       -4.173  -4.187  -0.152  0.00  0.00    +0.290 C 
BRANCH  11  12
ATOM     12  C   LIG    1       -4.826  -3.506   1.053  0.00  0.00    -0.180 C 
ATOM     13  C   LIG    1       -5.964  -2.521   0.777  0.00  0.00    +0.040 C 
ATOM     14  C   LIG    1       -3.889  -3.196   2.222  0.00  0.00    +0.080 C 
ATOM     15  C   LIG    1       -6.269  -3.891   1.386  0.00  0.00    +0.080 C 
ENDBRANCH  11  12
ENDBRANCH   1  11
TORSDOF 7
ENDMDL
MODEL      173
REMARK  Name = ZINC000683804669
REMARK                            x       y       z     vdW  Elec       q    Type
REMARK                         _______ _______ _______ _____ _____    ______ ____
ROOT
ATOM      1  N   LIG    1        2.964  -3.643   1.517  0.00  0.00    -0.380 N 
ATOM      2  C   LIG    1        1.887  -3.451   2.497  0.00  0.00    +0.300 C 
ATOM      3  H   LIG    1        3.771  -3.104   1.793  0.00  0.00    +0.420 HD
ENDROOT
BRANCH   1   4
ATOM      4  C   LIG    1        3.323  -5.066   1.456  0.00  0.00    +0.050 C 
ATOM      5  C   LIG    1        4.498  -5.272   0.484  0.00  0.00    +0.040 C 
ATOM      6  C   LIG    1        5.654  -5.873   1.311  0.00  0.00    +0.040 C 
ATOM      7  C   LIG    1        4.949  -6.543   2.517  0.00  0.00    +0.050 C 
ATOM      8  C   LIG    1        2.117  -5.891   1.004  0.00  0.00    +0.090 C 
ATOM      9  C   LIG    1        3.805  -5.549   2.839  0.00  0.00    +0.050 C 
ENDBRANCH   1   4
BRANCH   1  10
ATOM     10  C   LIG    1        2.507  -3.196   0.194  0.00  0.00    +0.250 C 
BRANCH  10  11
ATOM     11  C   LIG    1        2.252  -1.688   0.225  0.00  0.00    +0.070 C 
BRANCH  11  13
ATOM     12  C   LIG    1        0.669  -0.551  -1.245  0.00  0.00    +0.000 C 
ATOM     13  C   LIG    1        1.784  -1.229  -1.132  0.00  0.00    -0.070 C 
BRANCH  12  15
ATOM     14  C   LIG    1       -0.328   1.420  -0.117  0.00  0.00    +0.030 C 
ATOM     15  C   LIG    1       -0.057  -0.082  -0.010  0.00  0.00    +0.040 C 
ENDBRANCH  12  15
ENDBRANCH  11  13
ENDBRANCH  10  11
ENDBRANCH   1  10
TORSDOF 5
ENDMDL
MODEL      174
REMARK  Name = ZINC000683804879
REMARK                            x       y       z     vdW  Elec       q    Type
REMARK                         _______ _______ _______ _____ _____    ______ ____
ROOT
ATOM      1  C   LIG    1       -0.026   1.462  -0.080  0.00  0.00    +0.300 C 
ATOM      2  N   LIG    1        0.002  -0.004   0.002  0.00  0.00    -0.380 N 
ATOM      3  H   LIG    1        0.422  -0.380  -0.835  0.00  0.00    +0.420 HD
ENDROOT
BRANCH   2   4
ATOM      4  C   LIG    1       -1.370  -0.513   0.133  0.00  0.00    +0.050 C 
ATOM      5  C   LIG    1       -2.179  -0.178  -1.132  0.00  0.00    +0.040 C 
ATOM      6  C   LIG    1       -2.627  -1.525  -1.738  0.00  0.00    +0.040 C 
ATOM      7  C   LIG    1       -2.604  -2.506  -0.540  0.00  0.00    +0.050 C 
ATOM      8  C   LIG    1       -2.041   0.101   1.363  0.00  0.00    +0.090 C 
ATOM      9  C   LIG    1       -1.353  -2.051   0.252  0.00  0.00    +0.050 C 
ENDBRANCH   2   4
BRANCH   2  10
ATOM     10  C   LIG    1        0.790  -0.414   1.172  0.00  0.00    +0.240 C 
BRANCH  10  11
ATOM     11  C   LIG    1        2.248   0.008   0.978  0.00  0.00    +0.040 C 
BRANCH  11  12
ATOM     12  C   LIG    1        3.069  -0.419   2.196  0.00  0.00    -0.060 C 
ATOM     13  C   LIG    1        2.507   0.252   3.451  0.00  0.00    +0.030 C 
ATOM     14  C   LIG    1        4.527   0.003   2.002  0.00  0.00    +0.040 C 
ATOM     15  C   LIG    1        2.995  -1.939   2.354  0.00  0.00    +0.030 C 
ENDBRANCH  11  12
ENDBRANCH  10  11
ENDBRANCH   2  10
TORSDOF 4
ENDMDL
MODEL      175
REMARK  Name = ZINC000683804666
REMARK                            x       y       z     vdW  Elec       q    Type
REMARK                         _______ _______ _______ _____ _____    ______ ____
ROOT
ATOM      1  N   LIG    1        4.611  -1.954  -3.476  0.00  0.00    -0.380 N 
ATOM      2  C   LIG    1        4.136  -1.194  -4.640  0.00  0.00    +0.300 C 
ATOM      3  H   LIG    1        4.415  -2.934  -3.612  0.00  0.00    +0.420 HD
ENDROOT
BRANCH   1   4
ATOM      4  C   LIG    1        6.059  -1.760  -3.324  0.00  0.00    +0.050 C 
ATOM      5  C   LIG    1        6.583  -2.607  -2.151  0.00  0.00    +0.040 C 
ATOM      6  C   LIG    1        7.619  -3.586  -2.742  0.00  0.00    +0.040 C 
ATOM      7  C   LIG    1        8.096  -2.894  -4.043  0.00  0.00    +0.050 C 
ATOM      8  C   LIG    1        6.367  -0.281  -3.082  0.00  0.00    +0.090 C 
ATOM      9  C   LIG    1        6.795  -2.254  -4.587  0.00  0.00    +0.050 C 
ENDBRANCH   1   4
BRANCH   1  10
ATOM     10  C   LIG    1        3.924  -1.480  -2.268  0.00  0.00    +0.250 C 
BRANCH  10  11
ATOM     11  C   LIG    1        2.430  -1.795  -2.374  0.00  0.00    +0.070 C 
BRANCH  11  13
ATOM     12  C   LIG    1        0.707  -0.490  -1.238  0.00  0.00    +0.000 C 
ATOM     13  C   LIG    1        1.725  -1.309  -1.134  0.00  0.00    -0.070 C 
BRANCH  12  15
ATOM     14  C   LIG    1       -0.019   1.526   0.010  0.00  0.00    +0.020 C 
ATOM     15  C   LIG    1        0.002  -0.004   0.002  0.00  0.00    +0.040 C 
ENDBRANCH  12  15
ENDBRANCH  11  13
ENDBRANCH  10  11
ENDBRANCH   1  10
TORSDOF 5
ENDMDL
MODEL      176
REMARK  Name = ZINC000308385254
REMARK                            x       y       z     vdW  Elec       q    Type
REMARK                         _______ _______ _______ _____ _____    ______ ____
ROOT
ATOM      1  N   LIG    1        1.702  -2.605  -0.160  0.00  0.00    -0.380 N 
ATOM      2  C   LIG    1        1.028  -2.311   1.111  0.00  0.00    +0.310 C 
ATOM      3  H   LIG    1        2.670  -2.324  -0.100  0.00  0.00    +0.420 HD
ENDROOT
BRANCH   1   4
ATOM      4  C   LIG    1        1.044  -1.866  -1.246  0.00  0.00    +0.160 C 
ATOM      5  C   LIG    1       -0.391  -2.371  -1.409  0.00  0.00    +0.080 C 
BRANCH   4   6
ATOM      6  C   LIG    1        1.813  -2.084  -2.550  0.00  0.00    +0.050 C 
BRANCH   6   8
ATOM      7  C   LIG    1        3.985  -1.705  -3.725  0.00  0.00    +0.030 C 
ATOM      8  C   LIG    1        3.219  -1.495  -2.418  0.00  0.00    -0.010 C 
ENDBRANCH   6   8
ENDBRANCH   4   6
ENDBRANCH   1   4
BRANCH   1   9
ATOM      9  C   LIG    1        1.627  -4.046  -0.433  0.00  0.00    +0.240 C 
BRANCH   9  10
ATOM     10  C   LIG    1        2.406  -4.810   0.640  0.00  0.00    +0.020 C 
BRANCH  10  11
ATOM     11  C   LIG    1        2.327  -6.311   0.356  0.00  0.00    +0.030 C 
BRANCH  11  12
ATOM     12  C   LIG    1        3.106  -7.075   1.429  0.00  0.00    -0.030 C 
ATOM     13  C   LIG    1        3.133  -8.564   1.077  0.00  0.00    +0.030 C 
ATOM     14  C   LIG    1        2.425  -6.884   2.786  0.00  0.00    +0.020 C 
ENDBRANCH  11  12
ENDBRANCH  10  11
ENDBRANCH   9  10
ENDBRANCH   1   9
TORSDOF 7
ENDMDL
MODEL      177
REMARK  Name = ZINC000308385255
REMARK                            x       y       z     vdW  Elec       q    Type
REMARK                         _______ _______ _______ _____ _____    ______ ____
ROOT
ATOM      1  N   LIG    1       -0.556  -2.447  -1.231  0.00  0.00    -0.380 N 
ATOM      2  C   LIG    1       -0.613  -3.905  -1.060  0.00  0.00    +0.310 C 
ATOM      3  H   LIG    1       -0.962  -2.196  -2.120  0.00  0.00    +0.420 HD
ENDROOT
BRANCH   1   4
ATOM      4  C   LIG    1        0.844  -2.004  -1.190  0.00  0.00    +0.160 C 
ATOM      5  C   LIG    1        1.498  -2.499   0.101  0.00  0.00    +0.080 C 
BRANCH   4   6
ATOM      6  C   LIG    1        1.596  -2.575  -2.394  0.00  0.00    +0.050 C 
BRANCH   6   8
ATOM      7  C   LIG    1        1.854  -2.453  -4.876  0.00  0.00    +0.030 C 
ATOM      8  C   LIG    1        1.022  -1.981  -3.682  0.00  0.00    -0.000 C 
ENDBRANCH   6   8
ENDBRANCH   4   6
ENDBRANCH   1   4
BRANCH   1   9
ATOM      9  C   LIG    1       -1.307  -1.797  -0.149  0.00  0.00    +0.250 C 
BRANCH   9  10
ATOM     10  C   LIG    1       -2.792  -2.140  -0.281  0.00  0.00    +0.030 C 
BRANCH  10  11
ATOM     11  C   LIG    1       -3.575  -1.464   0.846  0.00  0.00    +0.030 C 
BRANCH  11  12
ATOM     12  C   LIG    1       -5.060  -1.806   0.713  0.00  0.00    -0.030 C 
ATOM     13  C   LIG    1       -5.858  -1.032   1.763  0.00  0.00    +0.030 C 
ATOM     14  C   LIG    1       -5.258  -3.308   0.928  0.00  0.00    +0.020 C 
ENDBRANCH  11  12
ENDBRANCH  10  11
ENDBRANCH   9  10
ENDBRANCH   1   9
TORSDOF 7
ENDMDL
MODEL      178
REMARK  Name = ZINC001172364567
REMARK                            x       y       z     vdW  Elec       q    Type
REMARK                         _______ _______ _______ _____ _____    ______ ____
ROOT
ATOM      1  C   LIG    1        1.342  -3.966  -2.543  0.00  0.00    +0.160 C 
ATOM      2  C   LIG    1        2.058  -4.459  -3.802  0.00  0.00    +0.040 C 
ATOM      3  C   LIG    1        1.970  -5.985  -3.873  0.00  0.00    +0.040 C 
ATOM      4  C   LIG    1        0.501  -6.410  -3.923  0.00  0.00    -0.010 C 
ATOM      5  C   LIG    1       -0.215  -5.916  -2.664  0.00  0.00    +0.010 C 
ATOM      6  C   LIG    1        0.450  -6.524  -1.428  0.00  0.00    +0.030 C 
ATOM      7  C   LIG    1        0.413  -7.936  -3.995  0.00  0.00    +0.020 C 
ATOM      8  C   LIG    1       -0.127  -4.391  -2.592  0.00  0.00    +0.040 C 
ENDROOT
BRANCH   1   9
ATOM      9  N   LIG    1        1.427  -2.501  -2.474  0.00  0.00    -0.380 N 
ATOM     10  C   LIG    1        2.837  -2.094  -2.426  0.00  0.00    +0.320 C 
ATOM     11  H   LIG    1        0.988  -2.100  -3.289  0.00  0.00    +0.420 HD
BRANCH   9  12
ATOM     12  C   LIG    1        0.739  -2.027  -1.265  0.00  0.00    +0.240 C 
BRANCH  12  13
ATOM     13  C   LIG    1        0.718  -0.497  -1.257  0.00  0.00    +0.030 C 
BRANCH  13  15
ATOM     14  C   LIG    1       -0.019   1.526   0.010  0.00  0.00    +0.030 C 
ATOM     15  C   LIG    1        0.002  -0.004   0.002  0.00  0.00    +0.020 C 
ENDBRANCH  13  15
ENDBRANCH  12  13
ENDBRANCH   9  12
ENDBRANCH   1   9
TORSDOF 4
ENDMDL
MODEL      179
REMARK  Name = ZINC001172364382
REMARK                            x       y       z     vdW  Elec       q    Type
REMARK                         _______ _______ _______ _____ _____    ______ ____
ROOT
ATOM      1  C   LIG    1        1.228  -2.680  -2.165  0.00  0.00    +0.160 C 
ATOM      2  C   LIG    1        0.889  -4.170  -2.083  0.00  0.00    +0.040 C 
ATOM      3  C   LIG    1        1.665  -4.929  -3.162  0.00  0.00    +0.050 C 
ATOM      4  C   LIG    1        3.167  -4.735  -2.942  0.00  0.00    -0.010 C 
ATOM      5  C   LIG    1        3.505  -3.245  -3.024  0.00  0.00    +0.000 C 
ATOM      6  C   LIG    1        5.007  -3.051  -2.804  0.00  0.00    +0.030 C 
ATOM      7  C   LIG    1        3.942  -5.494  -4.021  0.00  0.00    +0.020 C 
ATOM      8  C   LIG    1        2.730  -2.486  -1.945  0.00  0.00    +0.040 C 
ENDROOT
BRANCH   1   9
ATOM      9  N   LIG    1        0.483  -1.952  -1.130  0.00  0.00    -0.380 N 
ATOM     10  H   LIG    1       -0.501  -2.152  -1.219  0.00  0.00    +0.420 HD
BRANCH   9  11
ATOM     11  C   LIG    1        0.706  -0.508  -1.291  0.00  0.00    +0.240 C 
ATOM     12  C   LIG    1        0.089  -0.042  -2.611  0.00  0.00    +0.080 C 
ENDBRANCH   9  11
BRANCH   9  13
ATOM     13  C   LIG    1        0.950  -2.373   0.198  0.00  0.00    +0.240 C 
BRANCH  13  15
ATOM     14  C   LIG    1        0.577  -2.148   2.658  0.00  0.00    +0.060 C 
ATOM     15  C   LIG    1        0.091  -1.709   1.276  0.00  0.00    +0.030 C 
ENDBRANCH  13  15
ENDBRANCH   9  13
ENDBRANCH   1   9
TORSDOF 4
ENDMDL
MODEL      180
REMARK  Name = ZINC001172365991
REMARK                            x       y       z     vdW  Elec       q    Type
REMARK                         _______ _______ _______ _____ _____    ______ ____
ROOT
ATOM      1  C   LIG    1       -0.832  -1.868   0.154  0.00  0.00    +0.160 C 
ATOM      2  C   LIG    1       -2.001  -2.853   0.211  0.00  0.00    +0.040 C 
ATOM      3  C   LIG    1       -1.461  -4.285   0.233  0.00  0.00    +0.050 C 
ATOM      4  C   LIG    1       -0.573  -4.476   1.464  0.00  0.00    -0.010 C 
ATOM      5  C   LIG    1        0.596  -3.491   1.407  0.00  0.00    +0.000 C 
ATOM      6  C   LIG    1        1.485  -3.682   2.638  0.00  0.00    +0.030 C 
ATOM      7  C   LIG    1       -0.033  -5.907   1.486  0.00  0.00    +0.020 C 
ATOM      8  C   LIG    1        0.057  -2.059   1.385  0.00  0.00    +0.040 C 
ENDROOT
BRANCH   1   9
ATOM      9  N   LIG    1       -1.350  -0.494   0.133  0.00  0.00    -0.380 N 
ATOM     10  H   LIG    1       -1.968  -0.355   0.918  0.00  0.00    +0.420 HD
BRANCH   9  11
ATOM     11  C   LIG    1       -2.089  -0.269  -1.117  0.00  0.00    +0.160 C 
ATOM     12  C   LIG    1       -3.568  -0.596  -0.900  0.00  0.00    +0.080 C 
ATOM     13  C   LIG    1       -1.523  -1.171  -2.215  0.00  0.00    +0.080 C 
ENDBRANCH   9  11
BRANCH   9  15
ATOM     14  C   LIG    1       -0.775   1.879   0.327  0.00  0.00    +0.080 C 
ATOM     15  C   LIG    1       -0.230   0.453   0.216  0.00  0.00    +0.240 C 
ENDBRANCH   9  15
ENDBRANCH   1   9
TORSDOF 3
ENDMDL
MODEL      181
REMARK  Name = ZINC001172365995
REMARK                            x       y       z     vdW  Elec       q    Type
REMARK                         _______ _______ _______ _____ _____    ______ ____
ROOT
ATOM      1  C   LIG    1       -0.832  -1.868   0.154  0.00  0.00    +0.160 C 
ATOM      2  C   LIG    1       -2.001  -2.853   0.211  0.00  0.00    +0.040 C 
ATOM      3  C   LIG    1       -1.461  -4.285   0.233  0.00  0.00    +0.040 C 
ATOM      4  C   LIG    1       -0.573  -4.476   1.464  0.00  0.00    -0.010 C 
ATOM      5  C   LIG    1        0.596  -3.491   1.407  0.00  0.00    +0.000 C 
ATOM      6  C   LIG    1        1.485  -3.682   2.638  0.00  0.00    +0.030 C 
ATOM      7  C   LIG    1       -1.394  -4.220   2.730  0.00  0.00    +0.020 C 
ATOM      8  C   LIG    1        0.057  -2.059   1.385  0.00  0.00    +0.040 C 
ENDROOT
BRANCH   1   9
ATOM      9  N   LIG    1       -1.350  -0.494   0.133  0.00  0.00    -0.380 N 
ATOM     10  H   LIG    1       -1.968  -0.355   0.918  0.00  0.00    +0.420 HD
BRANCH   9  11
ATOM     11  C   LIG    1       -2.089  -0.269  -1.117  0.00  0.00    +0.160 C 
ATOM     12  C   LIG    1       -3.568  -0.596  -0.900  0.00  0.00    +0.080 C 
ATOM     13  C   LIG    1       -1.523  -1.171  -2.215  0.00  0.00    +0.080 C 
ENDBRANCH   9  11
BRANCH   9  15
ATOM     14  C   LIG    1       -0.775   1.879   0.327  0.00  0.00    +0.080 C 
ATOM     15  C   LIG    1       -0.230   0.453   0.216  0.00  0.00    +0.240 C 
ENDBRANCH   9  15
ENDBRANCH   1   9
TORSDOF 3
ENDMDL
MODEL      182
REMARK  Name = ZINC001172364381
REMARK                            x       y       z     vdW  Elec       q    Type
REMARK                         _______ _______ _______ _____ _____    ______ ____
ROOT
ATOM      1  C   LIG    1        1.228  -2.680  -2.165  0.00  0.00    +0.160 C 
ATOM      2  C   LIG    1        0.889  -4.170  -2.083  0.00  0.00    +0.040 C 
ATOM      3  C   LIG    1        1.665  -4.929  -3.161  0.00  0.00    +0.040 C 
ATOM      4  C   LIG    1        3.166  -4.735  -2.942  0.00  0.00    -0.010 C 
ATOM      5  C   LIG    1        3.505  -3.245  -3.023  0.00  0.00    +0.010 C 
ATOM      6  C   LIG    1        3.118  -2.709  -4.403  0.00  0.00    +0.030 C 
ATOM      7  C   LIG    1        3.942  -5.495  -4.020  0.00  0.00    +0.020 C 
ATOM      8  C   LIG    1        2.729  -2.486  -1.945  0.00  0.00    +0.040 C 
ENDROOT
BRANCH   1   9
ATOM      9  N   LIG    1        0.483  -1.952  -1.129  0.00  0.00    -0.380 N 
ATOM     10  H   LIG    1       -0.502  -2.152  -1.219  0.00  0.00    +0.420 HD
BRANCH   9  11
ATOM     11  C   LIG    1        0.705  -0.508  -1.291  0.00  0.00    +0.240 C 
ATOM     12  C   LIG    1        0.089  -0.042  -2.611  0.00  0.00    +0.080 C 
ENDBRANCH   9  11
BRANCH   9  13
ATOM     13  C   LIG    1        0.950  -2.373   0.198  0.00  0.00    +0.240 C 
BRANCH  13  15
ATOM     14  C   LIG    1        0.577  -2.148   2.658  0.00  0.00    +0.060 C 
ATOM     15  C   LIG    1        0.091  -1.708   1.276  0.00  0.00    +0.020 C 
ENDBRANCH  13  15
ENDBRANCH   9  13
ENDBRANCH   1   9
TORSDOF 4
ENDMDL
MODEL      183
REMARK  Name = ZINC001172364569
REMARK                            x       y       z     vdW  Elec       q    Type
REMARK                         _______ _______ _______ _____ _____    ______ ____
ROOT
ATOM      1  C   LIG    1        1.342  -3.966  -2.543  0.00  0.00    +0.160 C 
ATOM      2  C   LIG    1        2.058  -4.459  -3.802  0.00  0.00    +0.040 C 
ATOM      3  C   LIG    1        1.970  -5.985  -3.873  0.00  0.00    +0.050 C 
ATOM      4  C   LIG    1        0.501  -6.410  -3.923  0.00  0.00    -0.010 C 
ATOM      5  C   LIG    1       -0.215  -5.916  -2.664  0.00  0.00    +0.010 C 
ATOM      6  C   LIG    1        0.450  -6.524  -1.428  0.00  0.00    +0.030 C 
ATOM      7  C   LIG    1       -0.164  -5.802  -5.159  0.00  0.00    +0.010 C 
ATOM      8  C   LIG    1       -0.127  -4.391  -2.592  0.00  0.00    +0.040 C 
ENDROOT
BRANCH   1   9
ATOM      9  N   LIG    1        1.427  -2.501  -2.474  0.00  0.00    -0.380 N 
ATOM     10  C   LIG    1        2.837  -2.094  -2.426  0.00  0.00    +0.320 C 
ATOM     11  H   LIG    1        0.988  -2.100  -3.289  0.00  0.00    +0.420 HD
BRANCH   9  12
ATOM     12  C   LIG    1        0.739  -2.027  -1.265  0.00  0.00    +0.240 C 
BRANCH  12  13
ATOM     13  C   LIG    1        0.718  -0.497  -1.257  0.00  0.00    +0.030 C 
BRANCH  13  15
ATOM     14  C   LIG    1       -0.019   1.526   0.010  0.00  0.00    +0.030 C 
ATOM     15  C   LIG    1        0.002  -0.004   0.002  0.00  0.00    +0.020 C 
ENDBRANCH  13  15
ENDBRANCH  12  13
ENDBRANCH   9  12
ENDBRANCH   1   9
TORSDOF 4
ENDMDL
MODEL      184
REMARK  Name = ZINC001172364570
REMARK                            x       y       z     vdW  Elec       q    Type
REMARK                         _______ _______ _______ _____ _____    ______ ____
ROOT
ATOM      1  C   LIG    1        1.342  -3.966  -2.543  0.00  0.00    +0.170 C 
ATOM      2  C   LIG    1        2.058  -4.459  -3.802  0.00  0.00    +0.040 C 
ATOM      3  C   LIG    1        1.970  -5.985  -3.873  0.00  0.00    +0.050 C 
ATOM      4  C   LIG    1        0.501  -6.410  -3.923  0.00  0.00    -0.010 C 
ATOM      5  C   LIG    1       -0.215  -5.916  -2.664  0.00  0.00    +0.000 C 
ATOM      6  C   LIG    1       -1.684  -6.341  -2.714  0.00  0.00    +0.030 C 
ATOM      7  C   LIG    1       -0.164  -5.802  -5.159  0.00  0.00    +0.020 C 
ATOM      8  C   LIG    1       -0.127  -4.391  -2.592  0.00  0.00    +0.040 C 
ENDROOT
BRANCH   1   9
ATOM      9  N   LIG    1        1.427  -2.501  -2.474  0.00  0.00    -0.380 N 
ATOM     10  C   LIG    1        2.837  -2.094  -2.426  0.00  0.00    +0.320 C 
ATOM     11  H   LIG    1        0.988  -2.100  -3.289  0.00  0.00    +0.420 HD
BRANCH   9  12
ATOM     12  C   LIG    1        0.739  -2.027  -1.265  0.00  0.00    +0.240 C 
BRANCH  12  13
ATOM     13  C   LIG    1        0.718  -0.497  -1.257  0.00  0.00    +0.030 C 
BRANCH  13  15
ATOM     14  C   LIG    1       -0.019   1.526   0.010  0.00  0.00    +0.030 C 
ATOM     15  C   LIG    1        0.002  -0.004   0.002  0.00  0.00    +0.020 C 
ENDBRANCH  13  15
ENDBRANCH  12  13
ENDBRANCH   9  12
ENDBRANCH   1   9
TORSDOF 4
ENDMDL
MODEL      185
REMARK  Name = ZINC001172364383
REMARK                            x       y       z     vdW  Elec       q    Type
REMARK                         _______ _______ _______ _____ _____    ______ ____
ROOT
ATOM      1  C   LIG    1        1.228  -2.680  -2.165  0.00  0.00    +0.160 C 
ATOM      2  C   LIG    1        0.889  -4.170  -2.083  0.00  0.00    +0.040 C 
ATOM      3  C   LIG    1        1.665  -4.930  -3.161  0.00  0.00    +0.050 C 
ATOM      4  C   LIG    1        3.166  -4.735  -2.942  0.00  0.00    -0.010 C 
ATOM      5  C   LIG    1        3.505  -3.245  -3.023  0.00  0.00    +0.010 C 
ATOM      6  C   LIG    1        3.118  -2.709  -4.403  0.00  0.00    +0.030 C 
ATOM      7  C   LIG    1        3.553  -5.271  -1.562  0.00  0.00    +0.010 C 
ATOM      8  C   LIG    1        2.729  -2.486  -1.945  0.00  0.00    +0.040 C 
ENDROOT
BRANCH   1   9
ATOM      9  N   LIG    1        0.483  -1.952  -1.129  0.00  0.00    -0.380 N 
ATOM     10  H   LIG    1       -0.502  -2.152  -1.219  0.00  0.00    +0.420 HD
BRANCH   9  11
ATOM     11  C   LIG    1        0.705  -0.508  -1.291  0.00  0.00    +0.240 C 
ATOM     12  C   LIG    1        0.089  -0.042  -2.611  0.00  0.00    +0.080 C 
ENDBRANCH   9  11
BRANCH   9  13
ATOM     13  C   LIG    1        0.950  -2.373   0.198  0.00  0.00    +0.240 C 
BRANCH  13  15
ATOM     14  C   LIG    1        0.577  -2.148   2.658  0.00  0.00    +0.060 C 
ATOM     15  C   LIG    1        0.091  -1.708   1.276  0.00  0.00    +0.030 C 
ENDBRANCH  13  15
ENDBRANCH   9  13
ENDBRANCH   1   9
TORSDOF 4
ENDMDL
MODEL      186
REMARK  Name = ZINC001172365989
REMARK                            x       y       z     vdW  Elec       q    Type
REMARK                         _______ _______ _______ _____ _____    ______ ____
ROOT
ATOM      1  C   LIG    1       -0.832  -1.868   0.154  0.00  0.00    +0.160 C 
ATOM      2  C   LIG    1       -2.001  -2.853   0.211  0.00  0.00    +0.040 C 
ATOM      3  C   LIG    1       -1.461  -4.285   0.233  0.00  0.00    +0.040 C 
ATOM      4  C   LIG    1       -0.573  -4.476   1.464  0.00  0.00    -0.010 C 
ATOM      5  C   LIG    1        0.596  -3.491   1.407  0.00  0.00    +0.010 C 
ATOM      6  C   LIG    1        1.417  -3.746   0.141  0.00  0.00    +0.030 C 
ATOM      7  C   LIG    1       -0.033  -5.907   1.486  0.00  0.00    +0.020 C 
ATOM      8  C   LIG    1        0.057  -2.059   1.385  0.00  0.00    +0.040 C 
ENDROOT
BRANCH   1   9
ATOM      9  N   LIG    1       -1.350  -0.494   0.133  0.00  0.00    -0.380 N 
ATOM     10  H   LIG    1       -1.968  -0.355   0.918  0.00  0.00    +0.420 HD
BRANCH   9  11
ATOM     11  C   LIG    1       -2.089  -0.269  -1.117  0.00  0.00    +0.160 C 
ATOM     12  C   LIG    1       -3.568  -0.596  -0.900  0.00  0.00    +0.080 C 
ATOM     13  C   LIG    1       -1.523  -1.171  -2.215  0.00  0.00    +0.080 C 
ENDBRANCH   9  11
BRANCH   9  15
ATOM     14  C   LIG    1       -0.775   1.879   0.327  0.00  0.00    +0.080 C 
ATOM     15  C   LIG    1       -0.230   0.453   0.216  0.00  0.00    +0.240 C 
ENDBRANCH   9  15
ENDBRANCH   1   9
TORSDOF 3
ENDMDL
MODEL      187
REMARK  Name = ZINC001172364384
REMARK                            x       y       z     vdW  Elec       q    Type
REMARK                         _______ _______ _______ _____ _____    ______ ____
ROOT
ATOM      1  C   LIG    1        1.228  -2.680  -2.165  0.00  0.00    +0.160 C 
ATOM      2  C   LIG    1        0.889  -4.170  -2.083  0.00  0.00    +0.040 C 
ATOM      3  C   LIG    1        1.665  -4.929  -3.162  0.00  0.00    +0.050 C 
ATOM      4  C   LIG    1        3.167  -4.735  -2.942  0.00  0.00    -0.010 C 
ATOM      5  C   LIG    1        3.505  -3.245  -3.024  0.00  0.00    +0.000 C 
ATOM      6  C   LIG    1        5.007  -3.051  -2.804  0.00  0.00    +0.030 C 
ATOM      7  C   LIG    1        3.554  -5.271  -1.562  0.00  0.00    +0.020 C 
ATOM      8  C   LIG    1        2.730  -2.486  -1.945  0.00  0.00    +0.040 C 
ENDROOT
BRANCH   1   9
ATOM      9  N   LIG    1        0.483  -1.952  -1.130  0.00  0.00    -0.380 N 
ATOM     10  H   LIG    1       -0.501  -2.152  -1.219  0.00  0.00    +0.420 HD
BRANCH   9  11
ATOM     11  C   LIG    1        0.706  -0.508  -1.291  0.00  0.00    +0.240 C 
ATOM     12  C   LIG    1        0.089  -0.042  -2.611  0.00  0.00    +0.080 C 
ENDBRANCH   9  11
BRANCH   9  13
ATOM     13  C   LIG    1        0.950  -2.373   0.198  0.00  0.00    +0.240 C 
BRANCH  13  15
ATOM     14  C   LIG    1        0.577  -2.148   2.658  0.00  0.00    +0.060 C 
ATOM     15  C   LIG    1        0.091  -1.709   1.276  0.00  0.00    +0.030 C 
ENDBRANCH  13  15
ENDBRANCH   9  13
ENDBRANCH   1   9
TORSDOF 4
ENDMDL
MODEL      188
REMARK  Name = ZINC000684429243
REMARK                            x       y       z     vdW  Elec       q    Type
REMARK                         _______ _______ _______ _____ _____    ______ ____
ROOT
ATOM      1  N   LIG    1       -1.371  -0.504   0.136  0.00  0.00    -0.380 N 
ATOM      2  H   LIG    1       -1.787   0.009   0.898  0.00  0.00    +0.420 HD
ENDROOT
BRANCH   1   4
ATOM      3  C   LIG    1        0.086   1.435  -0.199  0.00  0.00    +0.080 C 
ATOM      4  C   LIG    1        0.027  -0.085  -0.032  0.00  0.00    +0.240 C 
ENDBRANCH   1   4
BRANCH   1   5
ATOM      5  C   LIG    1       -1.418  -1.942   0.431  0.00  0.00    +0.260 C 
BRANCH   5   6
ATOM      6  C   LIG    1       -0.751  -2.208   1.781  0.00  0.00    -0.040 C 
ATOM      7  C   LIG    1       -1.709  -2.082   2.978  0.00  0.00    +0.020 C 
ATOM      8  C   LIG    1       -1.003  -3.313   3.572  0.00  0.00    +0.030 C 
ATOM      9  C   LIG    1       -0.638  -3.702   2.130  0.00  0.00    +0.040 C 
ENDBRANCH   5   6
ENDBRANCH   1   5
BRANCH   1  10
ATOM     10  C   LIG    1       -2.116  -0.233  -1.101  0.00  0.00    +0.250 C 
BRANCH  10  11
ATOM     11  C   LIG    1       -3.600  -0.533  -0.879  0.00  0.00    +0.040 C 
BRANCH  11  12
ATOM     12  C   LIG    1       -4.394  -0.125  -2.121  0.00  0.00    -0.060 C 
ATOM     13  C   LIG    1       -4.209   1.373  -2.375  0.00  0.00    +0.030 C 
ATOM     14  C   LIG    1       -5.878  -0.425  -1.899  0.00  0.00    +0.040 C 
ATOM     15  C   LIG    1       -3.890  -0.913  -3.331  0.00  0.00    +0.030 C 
ENDBRANCH  11  12
ENDBRANCH  10  11
ENDBRANCH   1  10
TORSDOF 6
ENDMDL
MODEL      189
REMARK  Name = ZINC001172365993
REMARK                            x       y       z     vdW  Elec       q    Type
REMARK                         _______ _______ _______ _____ _____    ______ ____
ROOT
ATOM      1  C   LIG    1       -0.832  -1.868   0.154  0.00  0.00    +0.160 C 
ATOM      2  C   LIG    1       -2.001  -2.853   0.211  0.00  0.00    +0.040 C 
ATOM      3  C   LIG    1       -1.461  -4.285   0.233  0.00  0.00    +0.050 C 
ATOM      4  C   LIG    1       -0.573  -4.476   1.464  0.00  0.00    -0.010 C 
ATOM      5  C   LIG    1        0.596  -3.491   1.407  0.00  0.00    +0.010 C 
ATOM      6  C   LIG    1        1.417  -3.746   0.141  0.00  0.00    +0.030 C 
ATOM      7  C   LIG    1       -1.394  -4.220   2.730  0.00  0.00    +0.010 C 
ATOM      8  C   LIG    1        0.057  -2.059   1.385  0.00  0.00    +0.040 C 
ENDROOT
BRANCH   1   9
ATOM      9  N   LIG    1       -1.350  -0.494   0.133  0.00  0.00    -0.380 N 
ATOM     10  H   LIG    1       -1.968  -0.355   0.918  0.00  0.00    +0.420 HD
BRANCH   9  11
ATOM     11  C   LIG    1       -2.089  -0.269  -1.117  0.00  0.00    +0.160 C 
ATOM     12  C   LIG    1       -3.568  -0.596  -0.900  0.00  0.00    +0.080 C 
ATOM     13  C   LIG    1       -1.523  -1.171  -2.215  0.00  0.00    +0.080 C 
ENDBRANCH   9  11
BRANCH   9  15
ATOM     14  C   LIG    1       -0.775   1.879   0.327  0.00  0.00    +0.080 C 
ATOM     15  C   LIG    1       -0.230   0.453   0.216  0.00  0.00    +0.240 C 
ENDBRANCH   9  15
ENDBRANCH   1   9
TORSDOF 3
ENDMDL
MODEL      190
REMARK  Name = ZINC001172364568
REMARK                            x       y       z     vdW  Elec       q    Type
REMARK                         _______ _______ _______ _____ _____    ______ ____
ROOT
ATOM      1  C   LIG    1        1.342  -3.966  -2.543  0.00  0.00    +0.170 C 
ATOM      2  C   LIG    1        2.058  -4.459  -3.802  0.00  0.00    +0.040 C 
ATOM      3  C   LIG    1        1.970  -5.985  -3.873  0.00  0.00    +0.050 C 
ATOM      4  C   LIG    1        0.501  -6.410  -3.923  0.00  0.00    -0.010 C 
ATOM      5  C   LIG    1       -0.215  -5.916  -2.664  0.00  0.00    +0.000 C 
ATOM      6  C   LIG    1       -1.684  -6.341  -2.714  0.00  0.00    +0.030 C 
ATOM      7  C   LIG    1        0.413  -7.936  -3.995  0.00  0.00    +0.030 C 
ATOM      8  C   LIG    1       -0.127  -4.391  -2.592  0.00  0.00    +0.040 C 
ENDROOT
BRANCH   1   9
ATOM      9  N   LIG    1        1.427  -2.501  -2.474  0.00  0.00    -0.380 N 
ATOM     10  C   LIG    1        2.837  -2.094  -2.426  0.00  0.00    +0.320 C 
ATOM     11  H   LIG    1        0.988  -2.100  -3.289  0.00  0.00    +0.420 HD
BRANCH   9  12
ATOM     12  C   LIG    1        0.739  -2.027  -1.265  0.00  0.00    +0.240 C 
BRANCH  12  13
ATOM     13  C   LIG    1        0.718  -0.497  -1.257  0.00  0.00    +0.030 C 
BRANCH  13  15
ATOM     14  C   LIG    1       -0.019   1.526   0.010  0.00  0.00    +0.030 C 
ATOM     15  C   LIG    1        0.002  -0.004   0.002  0.00  0.00    +0.020 C 
ENDBRANCH  13  15
ENDBRANCH  12  13
ENDBRANCH   9  12
ENDBRANCH   1   9
TORSDOF 4
ENDMDL
MODEL      191
REMARK  Name = ZINC001172372467
REMARK                            x       y       z     vdW  Elec       q    Type
REMARK                         _______ _______ _______ _____ _____    ______ ____
ROOT
ATOM      1  C   LIG    1       -0.136   1.422   2.230  0.00  0.00    +0.160 C 
ATOM      2  C   LIG    1       -0.951   1.899   3.434  0.00  0.00    +0.040 C 
ATOM      3  C   LIG    1       -1.178   3.409   3.330  0.00  0.00    +0.050 C 
ATOM      4  C   LIG    1       -1.940   3.723   2.041  0.00  0.00    -0.010 C 
ATOM      5  C   LIG    1       -1.124   3.246   0.838  0.00  0.00    +0.000 C 
ATOM      6  C   LIG    1       -1.885   3.560  -0.452  0.00  0.00    +0.030 C 
ATOM      7  C   LIG    1       -2.166   5.232   1.938  0.00  0.00    +0.020 C 
ATOM      8  C   LIG    1       -0.897   1.736   0.941  0.00  0.00    +0.040 C 
ENDROOT
BRANCH   1   9
ATOM      9  N   LIG    1        0.082  -0.027   2.330  0.00  0.00    -0.380 N 
ATOM     10  C   LIG    1        0.859  -0.324   3.540  0.00  0.00    +0.330 C 
ATOM     11  H   LIG    1       -0.809  -0.498   2.378  0.00  0.00    +0.420 HD
BRANCH   9  12
ATOM     12  C   LIG    1        0.819  -0.494   1.148  0.00  0.00    +0.160 C 
ATOM     13  C   LIG    1        2.199   0.167   1.114  0.00  0.00    +0.080 C 
BRANCH  12  15
ATOM     14  C   LIG    1       -0.392  -2.679   1.133  0.00  0.00    +0.020 C 
ATOM     15  C   LIG    1        0.984  -2.013   1.216  0.00  0.00    +0.050 C 
ENDBRANCH  12  15
ENDBRANCH   9  12
ENDBRANCH   1   9
TORSDOF 3
ENDMDL
MODEL      192
REMARK  Name = ZINC001172371849
REMARK                            x       y       z     vdW  Elec       q    Type
REMARK                         _______ _______ _______ _____ _____    ______ ____
ROOT
ATOM      1  C   LIG    1       -1.053   1.891   0.881  0.00  0.00    +0.020 C 
ATOM      2  C   LIG    1       -0.756   0.400   0.718  0.00  0.00    -0.010 C 
ATOM      3  C   LIG    1       -2.069  -0.366   0.539  0.00  0.00    +0.050 C 
ATOM      4  C   LIG    1       -1.771  -1.857   0.376  0.00  0.00    +0.040 C 
ATOM      5  C   LIG    1       -1.047  -2.372   1.621  0.00  0.00    +0.160 C 
ATOM      6  C   LIG    1        0.266  -1.607   1.800  0.00  0.00    +0.040 C 
ATOM      7  C   LIG    1       -0.031  -0.115   1.963  0.00  0.00    +0.000 C 
ATOM      8  C   LIG    1        1.282   0.650   2.143  0.00  0.00    +0.030 C 
ENDROOT
BRANCH   5   9
ATOM      9  N   LIG    1       -0.761  -3.805   1.464  0.00  0.00    -0.380 N 
ATOM     10  C   LIG    1        0.000  -4.282   2.626  0.00  0.00    +0.310 C 
ATOM     11  H   LIG    1       -0.220  -3.950   0.625  0.00  0.00    +0.420 HD
BRANCH   9  12
ATOM     12  C   LIG    1       -2.024  -4.548   1.367  0.00  0.00    +0.060 C 
ATOM     13  C   LIG    1       -3.085  -3.868   2.235  0.00  0.00    +0.090 C 
ATOM     14  C   LIG    1       -1.811  -5.983   1.854  0.00  0.00    +0.080 C 
ATOM     15  C   LIG    1       -2.494  -4.568  -0.089  0.00  0.00    +0.080 C 
ENDBRANCH   9  12
ENDBRANCH   5   9
TORSDOF 2
ENDMDL
MODEL      193
REMARK  Name = ZINC001172372470
REMARK                            x       y       z     vdW  Elec       q    Type
REMARK                         _______ _______ _______ _____ _____    ______ ____
ROOT
ATOM      1  C   LIG    1       -0.136   1.422   2.230  0.00  0.00    +0.160 C 
ATOM      2  C   LIG    1       -0.951   1.899   3.434  0.00  0.00    +0.040 C 
ATOM      3  C   LIG    1       -1.178   3.409   3.330  0.00  0.00    +0.050 C 
ATOM      4  C   LIG    1       -1.940   3.723   2.041  0.00  0.00    -0.010 C 
ATOM      5  C   LIG    1       -1.124   3.246   0.838  0.00  0.00    +0.000 C 
ATOM      6  C   LIG    1       -1.885   3.560  -0.452  0.00  0.00    +0.030 C 
ATOM      7  C   LIG    1       -3.290   3.005   2.059  0.00  0.00    +0.020 C 
ATOM      8  C   LIG    1       -0.897   1.736   0.941  0.00  0.00    +0.040 C 
ENDROOT
BRANCH   1   9
ATOM      9  N   LIG    1        0.082  -0.027   2.330  0.00  0.00    -0.380 N 
ATOM     10  C   LIG    1        0.859  -0.324   3.540  0.00  0.00    +0.330 C 
ATOM     11  H   LIG    1       -0.809  -0.498   2.378  0.00  0.00    +0.420 HD
BRANCH   9  12
ATOM     12  C   LIG    1        0.819  -0.494   1.148  0.00  0.00    +0.160 C 
ATOM     13  C   LIG    1        2.199   0.167   1.114  0.00  0.00    +0.080 C 
BRANCH  12  15
ATOM     14  C   LIG    1       -0.392  -2.679   1.133  0.00  0.00    +0.020 C 
ATOM     15  C   LIG    1        0.984  -2.013   1.216  0.00  0.00    +0.050 C 
ENDBRANCH  12  15
ENDBRANCH   9  12
ENDBRANCH   1   9
TORSDOF 3
ENDMDL
MODEL      194
REMARK  Name = ZINC001172371850
REMARK                            x       y       z     vdW  Elec       q    Type
REMARK                         _______ _______ _______ _____ _____    ______ ____
ROOT
ATOM      1  C   LIG    1        0.288   0.409  -0.232  0.00  0.00    +0.010 C 
ATOM      2  C   LIG    1        0.312  -1.087   0.091  0.00  0.00    -0.010 C 
ATOM      3  C   LIG    1       -1.120  -1.625   0.119  0.00  0.00    +0.050 C 
ATOM      4  C   LIG    1       -1.923  -0.884   1.190  0.00  0.00    +0.040 C 
ATOM      5  C   LIG    1       -1.270  -1.100   2.557  0.00  0.00    +0.160 C 
ATOM      6  C   LIG    1        0.162  -0.561   2.529  0.00  0.00    +0.040 C 
ATOM      7  C   LIG    1        0.965  -1.302   1.458  0.00  0.00    +0.010 C 
ATOM      8  C   LIG    1        0.989  -2.797   1.782  0.00  0.00    +0.030 C 
ENDROOT
BRANCH   5   9
ATOM      9  N   LIG    1       -2.041  -0.389   3.585  0.00  0.00    -0.380 N 
ATOM     10  C   LIG    1       -3.435  -0.853   3.561  0.00  0.00    +0.310 C 
ATOM     11  H   LIG    1       -2.014   0.603   3.401  0.00  0.00    +0.420 HD
BRANCH   9  12
ATOM     12  C   LIG    1       -1.458  -0.657   4.907  0.00  0.00    +0.060 C 
ATOM     13  C   LIG    1       -0.897  -2.080   4.938  0.00  0.00    +0.090 C 
ATOM     14  C   LIG    1       -2.540  -0.512   5.980  0.00  0.00    +0.080 C 
ATOM     15  C   LIG    1       -0.332   0.342   5.180  0.00  0.00    +0.090 C 
ENDBRANCH   9  12
ENDBRANCH   5   9
TORSDOF 2
ENDMDL
MODEL      195
REMARK  Name = ZINC001172372469
REMARK                            x       y       z     vdW  Elec       q    Type
REMARK                         _______ _______ _______ _____ _____    ______ ____
ROOT
ATOM      1  C   LIG    1       -0.136   1.422   2.230  0.00  0.00    +0.160 C 
ATOM      2  C   LIG    1       -0.951   1.899   3.434  0.00  0.00    +0.040 C 
ATOM      3  C   LIG    1       -1.178   3.409   3.330  0.00  0.00    +0.040 C 
ATOM      4  C   LIG    1       -1.940   3.723   2.041  0.00  0.00    -0.010 C 
ATOM      5  C   LIG    1       -1.124   3.246   0.838  0.00  0.00    +0.010 C 
ATOM      6  C   LIG    1        0.227   3.965   0.820  0.00  0.00    +0.030 C 
ATOM      7  C   LIG    1       -2.166   5.232   1.938  0.00  0.00    +0.020 C 
ATOM      8  C   LIG    1       -0.897   1.736   0.941  0.00  0.00    +0.040 C 
ENDROOT
BRANCH   1   9
ATOM      9  N   LIG    1        0.082  -0.027   2.330  0.00  0.00    -0.380 N 
ATOM     10  C   LIG    1        0.857  -0.324   3.542  0.00  0.00    +0.330 C 
ATOM     11  H   LIG    1       -0.809  -0.499   2.376  0.00  0.00    +0.420 HD
BRANCH   9  12
ATOM     12  C   LIG    1        0.822  -0.493   1.149  0.00  0.00    +0.160 C 
ATOM     13  C   LIG    1        2.202   0.166   1.119  0.00  0.00    +0.080 C 
BRANCH  12  15
ATOM     14  C   LIG    1       -0.391  -2.677   1.128  0.00  0.00    +0.020 C 
ATOM     15  C   LIG    1        0.984  -2.013   1.216  0.00  0.00    +0.050 C 
ENDBRANCH  12  15
ENDBRANCH   9  12
ENDBRANCH   1   9
TORSDOF 3
ENDMDL
MODEL      196
REMARK  Name = ZINC001172372472
REMARK                            x       y       z     vdW  Elec       q    Type
REMARK                         _______ _______ _______ _____ _____    ______ ____
ROOT
ATOM      1  C   LIG    1       -0.136   1.422   2.230  0.00  0.00    +0.160 C 
ATOM      2  C   LIG    1       -0.951   1.899   3.434  0.00  0.00    +0.040 C 
ATOM      3  C   LIG    1       -1.178   3.409   3.330  0.00  0.00    +0.050 C 
ATOM      4  C   LIG    1       -1.940   3.723   2.041  0.00  0.00    -0.010 C 
ATOM      5  C   LIG    1       -1.124   3.246   0.838  0.00  0.00    +0.010 C 
ATOM      6  C   LIG    1        0.227   3.965   0.820  0.00  0.00    +0.030 C 
ATOM      7  C   LIG    1       -3.290   3.005   2.059  0.00  0.00    +0.010 C 
ATOM      8  C   LIG    1       -0.897   1.736   0.941  0.00  0.00    +0.040 C 
ENDROOT
BRANCH   1   9
ATOM      9  N   LIG    1        0.082  -0.027   2.330  0.00  0.00    -0.380 N 
ATOM     10  C   LIG    1        0.857  -0.324   3.542  0.00  0.00    +0.330 C 
ATOM     11  H   LIG    1       -0.809  -0.499   2.376  0.00  0.00    +0.420 HD
BRANCH   9  12
ATOM     12  C   LIG    1        0.822  -0.493   1.149  0.00  0.00    +0.160 C 
ATOM     13  C   LIG    1        2.202   0.166   1.119  0.00  0.00    +0.080 C 
BRANCH  12  15
ATOM     14  C   LIG    1       -0.391  -2.677   1.128  0.00  0.00    +0.020 C 
ATOM     15  C   LIG    1        0.984  -2.013   1.216  0.00  0.00    +0.050 C 
ENDBRANCH  12  15
ENDBRANCH   9  12
ENDBRANCH   1   9
TORSDOF 3
ENDMDL
MODEL      197
REMARK  Name = ZINC001172371851
REMARK                            x       y       z     vdW  Elec       q    Type
REMARK                         _______ _______ _______ _____ _____    ______ ____
ROOT
ATOM      1  C   LIG    1        0.288   0.421  -0.229  0.00  0.00    +0.020 C 
ATOM      2  C   LIG    1        0.312  -1.075   0.090  0.00  0.00    -0.010 C 
ATOM      3  C   LIG    1       -1.119  -1.614   0.117  0.00  0.00    +0.040 C 
ATOM      4  C   LIG    1       -1.922  -0.876   1.190  0.00  0.00    +0.040 C 
ATOM      5  C   LIG    1       -1.270  -1.095   2.556  0.00  0.00    +0.160 C 
ATOM      6  C   LIG    1        0.162  -0.556   2.530  0.00  0.00    +0.040 C 
ATOM      7  C   LIG    1        0.965  -1.294   1.457  0.00  0.00    +0.000 C 
ATOM      8  C   LIG    1        2.397  -0.755   1.431  0.00  0.00    +0.030 C 
ENDROOT
BRANCH   5   9
ATOM      9  N   LIG    1       -2.041  -0.386   3.586  0.00  0.00    -0.380 N 
ATOM     10  C   LIG    1       -3.434  -0.850   3.561  0.00  0.00    +0.310 C 
ATOM     11  H   LIG    1       -2.014   0.606   3.404  0.00  0.00    +0.420 HD
BRANCH   9  12
ATOM     12  C   LIG    1       -1.458  -0.657   4.907  0.00  0.00    +0.060 C 
ATOM     13  C   LIG    1       -0.896  -2.080   4.934  0.00  0.00    +0.090 C 
ATOM     14  C   LIG    1       -2.540  -0.515   5.980  0.00  0.00    +0.080 C 
ATOM     15  C   LIG    1       -0.333   0.342   5.183  0.00  0.00    +0.080 C 
ENDBRANCH   9  12
ENDBRANCH   5   9
TORSDOF 2
ENDMDL
MODEL      198
REMARK  Name = ZINC001172371848
REMARK                            x       y       z     vdW  Elec       q    Type
REMARK                         _______ _______ _______ _____ _____    ______ ____
ROOT
ATOM      1  C   LIG    1       -1.054   1.891   0.881  0.00  0.00    +0.020 C 
ATOM      2  C   LIG    1       -0.756   0.400   0.718  0.00  0.00    -0.010 C 
ATOM      3  C   LIG    1       -2.069  -0.366   0.539  0.00  0.00    +0.040 C 
ATOM      4  C   LIG    1       -1.771  -1.857   0.376  0.00  0.00    +0.040 C 
ATOM      5  C   LIG    1       -1.047  -2.372   1.621  0.00  0.00    +0.160 C 
ATOM      6  C   LIG    1        0.266  -1.607   1.800  0.00  0.00    +0.040 C 
ATOM      7  C   LIG    1       -0.032  -0.115   1.963  0.00  0.00    +0.010 C 
ATOM      8  C   LIG    1       -0.917   0.097   3.193  0.00  0.00    +0.030 C 
ENDROOT
BRANCH   5   9
ATOM      9  N   LIG    1       -0.761  -3.805   1.464  0.00  0.00    -0.380 N 
ATOM     10  C   LIG    1        0.000  -4.282   2.626  0.00  0.00    +0.310 C 
ATOM     11  H   LIG    1       -0.220  -3.950   0.625  0.00  0.00    +0.420 HD
BRANCH   9  12
ATOM     12  C   LIG    1       -2.024  -4.548   1.367  0.00  0.00    +0.060 C 
ATOM     13  C   LIG    1       -3.085  -3.868   2.235  0.00  0.00    +0.090 C 
ATOM     14  C   LIG    1       -1.811  -5.983   1.854  0.00  0.00    +0.080 C 
ATOM     15  C   LIG    1       -2.494  -4.568  -0.089  0.00  0.00    +0.090 C 
ENDBRANCH   9  12
ENDBRANCH   5   9
TORSDOF 2
ENDMDL
MODEL      199
REMARK  Name = ZINC001172395895
REMARK                            x       y       z     vdW  Elec       q    Type
REMARK                         _______ _______ _______ _____ _____    ______ ____
ROOT
ATOM      1  N   LIG    1       -0.601   0.173  -0.597  0.00  0.00    -0.390 N 
ATOM      2  C   LIG    1       -0.603   0.123  -2.074  0.00  0.00    +0.250 C 
ATOM      3  C   LIG    1       -1.843  -0.731  -2.440  0.00  0.00    +0.080 C 
ATOM      4  C   LIG    1       -1.833  -1.795  -1.311  0.00  0.00    +0.080 C 
ATOM      5  C   LIG    1       -1.335  -1.001  -0.089  0.00  0.00    +0.050 C 
ATOM      6  C   LIG    1       -2.525  -0.541   0.754  0.00  0.00    +0.090 C 
ATOM      7  C   LIG    1       -0.402  -1.874   0.753  0.00  0.00    +0.080 C 
ATOM      8  H   LIG    1       -1.056   1.018  -0.285  0.00  0.00    +0.420 HD
ENDROOT
BRANCH   1   9
ATOM      9  C   LIG    1        0.782   0.143  -0.103  0.00  0.00    +0.160 C 
BRANCH   9  11
ATOM     10  C   LIG    1        0.615   2.068   1.482  0.00  0.00    +0.030 C 
ATOM     11  C   LIG    1        0.806   0.554   1.371  0.00  0.00    +0.050 C 
ENDBRANCH   9  11
BRANCH   9  12
ATOM     12  C   LIG    1        1.345  -1.272  -0.247  0.00  0.00    +0.070 C 
BRANCH  12  13
ATOM     13  C   LIG    1        2.698  -1.213  -0.959  0.00  0.00    -0.040 C 
ATOM     14  C   LIG    1        3.232  -2.633  -1.158  0.00  0.00    +0.040 C 
ATOM     15  C   LIG    1        3.686  -0.410  -0.110  0.00  0.00    +0.020 C 
ENDBRANCH  12  13
ENDBRANCH   9  12
ENDBRANCH   1   9
TORSDOF 4
ENDMDL
MODEL      200
REMARK  Name = ZINC001172395646
REMARK                            x       y       z     vdW  Elec       q    Type
REMARK                         _______ _______ _______ _____ _____    ______ ____
ROOT
ATOM      1  N   LIG    1       -1.895  -0.087  -1.602  0.00  0.00    -0.380 N 
ATOM      2  C   LIG    1       -1.674  -0.238  -3.047  0.00  0.00    +0.320 C 
ATOM      3  H   LIG    1       -1.093  -0.438  -1.101  0.00  0.00    +0.420 HD
ENDROOT
BRANCH   1   4
ATOM      4  C   LIG    1       -3.089  -0.847  -1.208  0.00  0.00    +0.160 C 
ATOM      5  C   LIG    1       -2.961  -2.290  -1.701  0.00  0.00    +0.080 C 
BRANCH   4   7
ATOM      6  C   LIG    1       -4.028   0.386   0.752  0.00  0.00    +0.030 C 
ATOM      7  C   LIG    1       -3.220  -0.838   0.316  0.00  0.00    +0.040 C 
ENDBRANCH   4   7
ENDBRANCH   1   4
BRANCH   1   8
ATOM      8  C   LIG    1       -2.091   1.333  -1.282  0.00  0.00    +0.150 C 
BRANCH   8   9
ATOM      9  C   LIG    1       -0.826   2.115  -1.641  0.00  0.00    +0.050 C 
ATOM     10  C   LIG    1        0.345   1.609  -0.796  0.00  0.00    +0.020 C 
ENDBRANCH   8   9
BRANCH   8  11
ATOM     11  C   LIG    1       -3.273   1.879  -2.084  0.00  0.00    +0.040 C 
BRANCH  11  12
ATOM     12  C   LIG    1       -3.488   3.353  -1.737  0.00  0.00    -0.010 C 
ATOM     13  C   LIG    1       -3.914   3.476  -0.273  0.00  0.00    +0.030 C 
ATOM     14  C   LIG    1       -4.581   3.935  -2.637  0.00  0.00    +0.040 C 
ENDBRANCH  11  12
ENDBRANCH   8  11
ENDBRANCH   1   8
TORSDOF 6
ENDMDL
MODEL      201
REMARK  Name = ZINC000685000245
REMARK                            x       y       z     vdW  Elec       q    Type
REMARK                         _______ _______ _______ _____ _____    ______ ____
ROOT
ATOM      1  N   LIG    1       -4.018  -0.808  -2.764  0.00  0.00    -0.380 N 
ATOM      2  C   LIG    1       -3.217  -1.550  -3.747  0.00  0.00    +0.310 C 
ATOM      3  H   LIG    1       -4.018   0.172  -3.002  0.00  0.00    +0.420 HD
ENDROOT
BRANCH   1   4
ATOM      4  C   LIG    1       -5.397  -1.315  -2.773  0.00  0.00    +0.160 C 
ATOM      5  C   LIG    1       -6.294  -0.463  -1.841  0.00  0.00    +0.040 C 
ATOM      6  C   LIG    1       -7.712  -0.706  -2.415  0.00  0.00    +0.050 C 
ATOM      7  C   LIG    1       -7.499  -0.751  -3.942  0.00  0.00    +0.030 C 
ATOM      8  C   LIG    1       -6.028  -1.138  -4.170  0.00  0.00    +0.040 C 
ENDBRANCH   1   4
BRANCH   1   9
ATOM      9  C   LIG    1       -3.440  -0.987  -1.425  0.00  0.00    +0.250 C 
BRANCH   9  10
ATOM     10  C   LIG    1       -2.050  -0.348  -1.381  0.00  0.00    -0.020 C 
ATOM     11  C   LIG    1       -2.179   1.165  -1.567  0.00  0.00    +0.040 C 
BRANCH  10  12
ATOM     12  C   LIG    1       -1.397  -0.642  -0.028  0.00  0.00    +0.040 C 
BRANCH  12  14
ATOM     13  C   LIG    1        0.651  -0.292   1.359  0.00  0.00    +0.030 C 
ATOM     14  C   LIG    1        0.044  -0.129  -0.036  0.00  0.00    -0.020 C 
ATOM     15  C   LIG    1        0.866  -0.932  -1.046  0.00  0.00    +0.020 C 
ENDBRANCH  12  14
ENDBRANCH  10  12
ENDBRANCH   9  10
ENDBRANCH   1   9
TORSDOF 5
ENDMDL
MODEL      202
REMARK  Name = ZINC001172395648
REMARK                            x       y       z     vdW  Elec       q    Type
REMARK                         _______ _______ _______ _____ _____    ______ ____
ROOT
ATOM      1  N   LIG    1       -1.618  -0.550   2.167  0.00  0.00    -0.380 N 
ATOM      2  C   LIG    1       -1.290  -1.357   3.350  0.00  0.00    +0.310 C 
ATOM      3  H   LIG    1       -0.940  -0.727   1.441  0.00  0.00    +0.420 HD
ENDROOT
BRANCH   1   4
ATOM      4  C   LIG    1       -1.594   0.874   2.524  0.00  0.00    +0.160 C 
ATOM      5  C   LIG    1       -1.878   1.717   1.279  0.00  0.00    +0.090 C 
BRANCH   4   7
ATOM      6  C   LIG    1       -0.151   0.859   4.564  0.00  0.00    +0.030 C 
ATOM      7  C   LIG    1       -0.217   1.237   3.082  0.00  0.00    +0.040 C 
ENDBRANCH   4   7
ENDBRANCH   1   4
BRANCH   1   8
ATOM      8  C   LIG    1       -2.958  -0.912   1.684  0.00  0.00    +0.160 C 
BRANCH   8   9
ATOM      9  C   LIG    1       -3.995  -0.576   2.757  0.00  0.00    +0.050 C 
ATOM     10  C   LIG    1       -4.342   0.913   2.683  0.00  0.00    +0.030 C 
ENDBRANCH   8   9
BRANCH   8  11
ATOM     11  C   LIG    1       -3.004  -2.411   1.382  0.00  0.00    +0.060 C 
BRANCH  11  12
ATOM     12  C   LIG    1       -2.031  -2.732   0.246  0.00  0.00    -0.040 C 
ATOM     13  C   LIG    1       -2.521  -2.077  -1.047  0.00  0.00    +0.030 C 
ATOM     14  C   LIG    1       -1.955  -4.248   0.053  0.00  0.00    +0.050 C 
ENDBRANCH  11  12
ENDBRANCH   8  11
ENDBRANCH   1   8
TORSDOF 6
ENDMDL
MODEL      203
REMARK  Name = ZINC000685001387
REMARK                            x       y       z     vdW  Elec       q    Type
REMARK                         _______ _______ _______ _____ _____    ______ ____
ROOT
ATOM      1  N   LIG    1        0.698  -0.598  -1.232  0.00  0.00    -0.380 N 
ATOM      2  H   LIG    1        0.343  -0.059  -2.008  0.00  0.00    +0.420 HD
ENDROOT
BRANCH   1   3
ATOM      3  C   LIG    1        0.528  -2.030  -1.513  0.00  0.00    +0.150 C 
ATOM      4  C   LIG    1       -0.780  -2.362  -2.249  0.00  0.00    +0.050 C 
ATOM      5  C   LIG    1        0.034  -3.370  -3.077  0.00  0.00    +0.060 C 
ATOM      6  C   LIG    1        1.267  -2.502  -2.776  0.00  0.00    +0.050 C 
ENDBRANCH   1   3
BRANCH   1   8
ATOM      7  C   LIG    1       -1.542  -0.421  -0.258  0.00  0.00    +0.080 C 
ATOM      8  C   LIG    1       -0.042  -0.246  -0.012  0.00  0.00    +0.250 C 
ENDBRANCH   1   8
BRANCH   1   9
ATOM      9  C   LIG    1        2.124  -0.301  -1.042  0.00  0.00    +0.250 C 
BRANCH   9  10
ATOM     10  C   LIG    1        2.319   1.211  -0.920  0.00  0.00    -0.020 C 
ATOM     11  C   LIG    1        1.877   1.889  -2.218  0.00  0.00    +0.040 C 
BRANCH  10  12
ATOM     12  C   LIG    1        3.796   1.516  -0.663  0.00  0.00    +0.040 C 
BRANCH  12  13
ATOM     13  C   LIG    1        3.970   3.014  -0.407  0.00  0.00    -0.020 C 
ATOM     14  C   LIG    1        5.460   3.339  -0.274  0.00  0.00    +0.030 C 
ATOM     15  C   LIG    1        3.248   3.398   0.886  0.00  0.00    +0.020 C 
ENDBRANCH  12  13
ENDBRANCH  10  12
ENDBRANCH   9  10
ENDBRANCH   1   9
TORSDOF 6
ENDMDL
MODEL      204
REMARK  Name = ZINC000685000395
REMARK                            x       y       z     vdW  Elec       q    Type
REMARK                         _______ _______ _______ _____ _____    ______ ____
ROOT
ATOM      1  N   LIG    1        0.155  -0.037   5.317  0.00  0.00    -0.360 N 
ATOM      2  H   LIG    1       -0.808  -0.322   5.411  0.00  0.00    +0.420 HD
ENDROOT
BRANCH   1   3
ATOM      3  C   LIG    1        0.246   1.426   5.425  0.00  0.00    +0.090 C 
ATOM      4  C   LIG    1       -1.065   2.215   5.439  0.00  0.00    +0.100 C 
ATOM      5  C   LIG    1       -0.245   2.070   6.723  0.00  0.00    +0.100 C 
ENDBRANCH   1   3
BRANCH   1   6
ATOM      6  C   LIG    1        0.956  -0.656   6.382  0.00  0.00    +0.150 C 
ATOM      7  C   LIG    1        2.437  -0.352   6.149  0.00  0.00    +0.080 C 
ATOM      8  C   LIG    1        0.738  -2.171   6.368  0.00  0.00    +0.090 C 
ENDBRANCH   1   6
BRANCH   1   9
ATOM      9  C   LIG    1        0.667  -0.464   4.008  0.00  0.00    +0.250 C 
BRANCH   9  10
ATOM     10  C   LIG    1       -0.248   0.069   2.904  0.00  0.00    -0.020 C 
ATOM     11  C   LIG    1       -1.625  -0.588   3.022  0.00  0.00    +0.020 C 
BRANCH  10  12
ATOM     12  C   LIG    1        0.357  -0.258   1.538  0.00  0.00    +0.030 C 
BRANCH  12  14
ATOM     13  C   LIG    1       -0.421   1.905   0.558  0.00  0.00    +0.020 C 
ATOM     14  C   LIG    1       -0.492   0.382   0.437  0.00  0.00    -0.020 C 
ATOM     15  C   LIG    1        0.040  -0.047  -0.932  0.00  0.00    +0.030 C 
ENDBRANCH  12  14
ENDBRANCH  10  12
ENDBRANCH   9  10
ENDBRANCH   1   9
TORSDOF 6
ENDMDL
MODEL      205
REMARK  Name = ZINC000685001388
REMARK                            x       y       z     vdW  Elec       q    Type
REMARK                         _______ _______ _______ _____ _____    ______ ____
ROOT
ATOM      1  N   LIG    1        0.600  -0.505  -0.939  0.00  0.00    -0.380 N 
ATOM      2  H   LIG    1        0.203  -0.019  -0.149  0.00  0.00    +0.420 HD
ENDROOT
BRANCH   1   3
ATOM      3  C   LIG    1       -0.247  -0.292  -2.121  0.00  0.00    +0.150 C 
ATOM      4  C   LIG    1       -1.750  -0.443  -1.836  0.00  0.00    +0.050 C 
ATOM      5  C   LIG    1       -1.967   0.763  -2.765  0.00  0.00    +0.060 C 
ATOM      6  C   LIG    1       -0.531   1.190  -2.416  0.00  0.00    +0.060 C 
ENDBRANCH   1   3
BRANCH   1   8
ATOM      7  C   LIG    1        1.434  -2.154   0.668  0.00  0.00    +0.080 C 
ATOM      8  C   LIG    1        0.674  -1.942  -0.642  0.00  0.00    +0.250 C 
ENDBRANCH   1   8
BRANCH   1   9
ATOM      9  C   LIG    1        1.950   0.010  -1.205  0.00  0.00    +0.250 C 
BRANCH   9  10
ATOM     10  C   LIG    1        1.905   1.537  -1.292  0.00  0.00    -0.020 C 
ATOM     11  C   LIG    1        1.403   2.109   0.035  0.00  0.00    +0.040 C 
BRANCH  10  12
ATOM     12  C   LIG    1        3.308   2.073  -1.580  0.00  0.00    +0.030 C 
BRANCH  12  13
ATOM     13  C   LIG    1        3.243   3.587  -1.791  0.00  0.00    -0.020 C 
ATOM     14  C   LIG    1        2.427   3.892  -3.049  0.00  0.00    +0.020 C 
ATOM     15  C   LIG    1        4.659   4.141  -1.955  0.00  0.00    +0.030 C 
ENDBRANCH  12  13
ENDBRANCH  10  12
ENDBRANCH   9  10
ENDBRANCH   1   9
TORSDOF 6
ENDMDL
MODEL      206
REMARK  Name = ZINC000685000243
REMARK                            x       y       z     vdW  Elec       q    Type
REMARK                         _______ _______ _______ _____ _____    ______ ____
ROOT
ATOM      1  N   LIG    1       -4.241  -0.176  -2.437  0.00  0.00    -0.380 N 
ATOM      2  C   LIG    1       -3.777  -1.004  -3.559  0.00  0.00    +0.310 C 
ATOM      3  H   LIG    1       -4.062   0.796  -2.640  0.00  0.00    +0.420 HD
ENDROOT
BRANCH   1   4
ATOM      4  C   LIG    1       -5.683  -0.379  -2.243  0.00  0.00    +0.160 C 
ATOM      5  C   LIG    1       -6.223   0.580  -1.153  0.00  0.00    +0.040 C 
ATOM      6  C   LIG    1       -7.729   0.679  -1.501  0.00  0.00    +0.050 C 
ATOM      7  C   LIG    1       -7.761   0.692  -3.043  0.00  0.00    +0.030 C 
ATOM      8  C   LIG    1       -6.460   0.019  -3.515  0.00  0.00    +0.040 C 
ENDBRANCH   1   4
BRANCH   1   9
ATOM      9  C   LIG    1       -3.524  -0.561  -1.214  0.00  0.00    +0.250 C 
BRANCH   9  10
ATOM     10  C   LIG    1       -2.040  -0.220  -1.365  0.00  0.00    -0.020 C 
ATOM     11  C   LIG    1       -1.271  -0.741  -0.149  0.00  0.00    +0.070 C 
BRANCH  10  12
ATOM     12  C   LIG    1       -1.873   1.298  -1.460  0.00  0.00    +0.010 C 
BRANCH  12  14
ATOM     13  C   LIG    1       -0.009   1.096  -3.111  0.00  0.00    +0.000 C 
ATOM     14  C   LIG    1       -0.406   1.634  -1.735  0.00  0.00    -0.020 C 
ATOM     15  C   LIG    1       -0.217   3.152  -1.707  0.00  0.00    +0.020 C 
ENDBRANCH  12  14
ENDBRANCH  10  12
ENDBRANCH   9  10
ENDBRANCH   1   9
TORSDOF 5
ENDMDL
MODEL      207
REMARK  Name = ZINC000685000396
REMARK                            x       y       z     vdW  Elec       q    Type
REMARK                         _______ _______ _______ _____ _____    ______ ____
ROOT
ATOM      1  N   LIG    1       -0.567  -0.710   4.589  0.00  0.00    -0.360 N 
ATOM      2  H   LIG    1       -1.188   0.083   4.529  0.00  0.00    +0.420 HD
ENDROOT
BRANCH   1   3
ATOM      3  C   LIG    1        0.105  -0.708   5.896  0.00  0.00    +0.090 C 
ATOM      4  C   LIG    1        0.056   0.584   6.713  0.00  0.00    +0.090 C 
ATOM      5  C   LIG    1       -0.777  -0.625   7.143  0.00  0.00    +0.090 C 
ENDBRANCH   1   3
BRANCH   1   6
ATOM      6  C   LIG    1       -1.339  -1.950   4.437  0.00  0.00    +0.160 C 
ATOM      7  C   LIG    1       -2.478  -1.969   5.457  0.00  0.00    +0.090 C 
ATOM      8  C   LIG    1       -0.423  -3.153   4.672  0.00  0.00    +0.080 C 
ENDBRANCH   1   6
BRANCH   1   9
ATOM      9  C   LIG    1        0.439  -0.625   3.522  0.00  0.00    +0.250 C 
BRANCH   9  10
ATOM     10  C   LIG    1       -0.263  -0.495   2.168  0.00  0.00    -0.020 C 
ATOM     11  C   LIG    1       -1.079   0.799   2.139  0.00  0.00    +0.040 C 
BRANCH  10  12
ATOM     12  C   LIG    1        0.783  -0.464   1.052  0.00  0.00    +0.040 C 
BRANCH  12  14
ATOM     13  C   LIG    1        1.114  -0.310  -1.420  0.00  0.00    +0.030 C 
ATOM     14  C   LIG    1        0.079  -0.484  -0.306  0.00  0.00    -0.020 C 
ATOM     15  C   LIG    1       -0.644  -1.820  -0.487  0.00  0.00    +0.020 C 
ENDBRANCH  12  14
ENDBRANCH  10  12
ENDBRANCH   9  10
ENDBRANCH   1   9
TORSDOF 6
ENDMDL
MODEL      208
REMARK  Name = ZINC001172395645
REMARK                            x       y       z     vdW  Elec       q    Type
REMARK                         _______ _______ _______ _____ _____    ______ ____
ROOT
ATOM      1  C   LIG    1       -1.139  -0.117   0.113  0.00  0.00    +0.160 C 
ENDROOT
BRANCH   1   2
ATOM      2  N   LIG    1       -2.008  -0.328  -1.053  0.00  0.00    -0.380 N 
ATOM      3  C   LIG    1       -3.180  -1.117  -0.652  0.00  0.00    +0.310 C 
ATOM      4  H   LIG    1       -2.311   0.565  -1.413  0.00  0.00    +0.420 HD
BRANCH   2   5
ATOM      5  C   LIG    1       -1.264  -1.050  -2.094  0.00  0.00    +0.160 C 
ATOM      6  C   LIG    1       -1.412  -2.557  -1.874  0.00  0.00    +0.080 C 
BRANCH   5   7
ATOM      7  C   LIG    1       -1.821  -0.678  -3.469  0.00  0.00    +0.050 C 
ATOM      8  C   LIG    1       -1.630   0.821  -3.709  0.00  0.00    +0.030 C 
ENDBRANCH   5   7
ENDBRANCH   2   5
ENDBRANCH   1   2
BRANCH   1  10
ATOM      9  C   LIG    1       -0.587   2.188  -0.679  0.00  0.00    +0.030 C 
ATOM     10  C   LIG    1       -0.003   0.836  -0.265  0.00  0.00    +0.050 C 
ENDBRANCH   1  10
BRANCH   1  11
ATOM     11  C   LIG    1       -0.553  -1.456   0.562  0.00  0.00    +0.050 C 
BRANCH  11  12
ATOM     12  C   LIG    1        0.255  -1.255   1.845  0.00  0.00    -0.010 C 
ATOM     13  C   LIG    1        0.924  -2.574   2.239  0.00  0.00    +0.040 C 
ATOM     14  C   LIG    1       -0.678  -0.801   2.969  0.00  0.00    +0.020 C 
ENDBRANCH  11  12
ENDBRANCH   1  11
TORSDOF 6
ENDMDL
MODEL      209
REMARK  Name = ZINC001172395680
REMARK                            x       y       z     vdW  Elec       q    Type
REMARK                         _______ _______ _______ _____ _____    ______ ____
ROOT
ATOM      1  N   LIG    1        2.226   0.026   1.047  0.00  0.00    -0.380 N 
ATOM      2  C   LIG    1        2.867  -0.270   2.336  0.00  0.00    +0.310 C 
ATOM      3  H   LIG    1        2.200   1.025   0.907  0.00  0.00    +0.420 HD
ENDROOT
BRANCH   1   4
ATOM      4  C   LIG    1        2.994  -0.601  -0.037  0.00  0.00    +0.140 C 
ATOM      5  C   LIG    1        2.882   0.141  -1.380  0.00  0.00    +0.050 C 
ATOM      6  C   LIG    1        4.381  -0.143  -1.572  0.00  0.00    +0.010 C 
ATOM      7  C   LIG    1        5.153   1.029  -2.182  0.00  0.00    +0.050 C 
ATOM      8  C   LIG    1        4.483  -0.216  -0.039  0.00  0.00    +0.060 C 
ENDBRANCH   1   4
BRANCH   1   9
ATOM      9  C   LIG    1        0.857  -0.504   1.048  0.00  0.00    +0.160 C 
BRANCH   9  11
ATOM     10  C   LIG    1        0.009   1.448  -0.261  0.00  0.00    +0.030 C 
ATOM     11  C   LIG    1        0.143  -0.076  -0.236  0.00  0.00    +0.050 C 
ENDBRANCH   9  11
BRANCH   9  12
ATOM     12  C   LIG    1        0.901  -2.032   1.120  0.00  0.00    +0.040 C 
BRANCH  12  13
ATOM     13  C   LIG    1       -0.519  -2.577   1.279  0.00  0.00    -0.010 C 
ATOM     14  C   LIG    1       -1.084  -2.141   2.633  0.00  0.00    +0.020 C 
ATOM     15  C   LIG    1       -0.490  -4.105   1.207  0.00  0.00    +0.040 C 
ENDBRANCH  12  13
ENDBRANCH   9  12
ENDBRANCH   1   9
TORSDOF 5
ENDMDL
MODEL      210
REMARK  Name = ZINC001172395894
REMARK                            x       y       z     vdW  Elec       q    Type
REMARK                         _______ _______ _______ _____ _____    ______ ____
ROOT
ATOM      1  N   LIG    1        2.020  -0.507  -1.230  0.00  0.00    -0.380 N 
ATOM      2  C   LIG    1        2.513  -1.159   0.002  0.00  0.00    +0.250 C 
ATOM      3  C   LIG    1        3.897  -1.738  -0.385  0.00  0.00    +0.080 C 
ATOM      4  C   LIG    1        3.645  -2.205  -1.842  0.00  0.00    +0.080 C 
ATOM      5  C   LIG    1        2.681  -1.135  -2.388  0.00  0.00    +0.050 C 
ATOM      6  C   LIG    1        3.464  -0.080  -3.171  0.00  0.00    +0.100 C 
ATOM      7  C   LIG    1        1.635  -1.790  -3.292  0.00  0.00    +0.090 C 
ATOM      8  H   LIG    1        2.241   0.477  -1.205  0.00  0.00    +0.420 HD
ENDROOT
BRANCH   1   9
ATOM      9  C   LIG    1        0.565  -0.684  -1.334  0.00  0.00    +0.160 C 
BRANCH   9  11
ATOM     10  C   LIG    1        0.187   1.770  -1.054  0.00  0.00    +0.040 C 
ATOM     11  C   LIG    1       -0.141   0.383  -0.495  0.00  0.00    +0.050 C 
ENDBRANCH   9  11
BRANCH   9  12
ATOM     12  C   LIG    1        0.183  -2.073  -0.819  0.00  0.00    +0.040 C 
BRANCH  12  13
ATOM     13  C   LIG    1       -1.290  -2.345  -1.132  0.00  0.00    -0.010 C 
ATOM     14  C   LIG    1       -1.705  -3.681  -0.511  0.00  0.00    +0.040 C 
ATOM     15  C   LIG    1       -1.487  -2.405  -2.648  0.00  0.00    +0.020 C 
ENDBRANCH  12  13
ENDBRANCH   9  12
ENDBRANCH   1   9
TORSDOF 4
ENDMDL
MODEL      211
REMARK  Name = ZINC001172395681
REMARK                            x       y       z     vdW  Elec       q    Type
REMARK                         _______ _______ _______ _____ _____    ______ ____
ROOT
ATOM      1  N   LIG    1       -0.173  -0.595   2.950  0.00  0.00    -0.380 N 
ATOM      2  C   LIG    1       -0.657   0.729   3.361  0.00  0.00    +0.320 C 
ATOM      3  H   LIG    1        0.120  -1.114   3.764  0.00  0.00    +0.420 HD
ENDROOT
BRANCH   1   4
ATOM      4  C   LIG    1       -1.254  -1.322   2.270  0.00  0.00    +0.140 C 
ATOM      5  C   LIG    1       -1.149  -2.850   2.406  0.00  0.00    +0.050 C 
ATOM      6  C   LIG    1       -2.677  -2.860   2.583  0.00  0.00    +0.010 C 
ATOM      7  C   LIG    1       -3.164  -3.846   3.647  0.00  0.00    +0.050 C 
ATOM      8  C   LIG    1       -2.548  -1.416   3.095  0.00  0.00    +0.060 C 
ENDBRANCH   1   4
BRANCH   1   9
ATOM      9  C   LIG    1        0.964  -0.438   2.033  0.00  0.00    +0.160 C 
BRANCH   9  11
ATOM     10  C   LIG    1        0.368   1.818   1.140  0.00  0.00    +0.030 C 
ATOM     11  C   LIG    1        0.515   0.335   0.792  0.00  0.00    +0.050 C 
ENDBRANCH   9  11
BRANCH   9  12
ATOM     12  C   LIG    1        1.478  -1.818   1.616  0.00  0.00    +0.060 C 
BRANCH  12  13
ATOM     13  C   LIG    1        2.058  -2.535   2.836  0.00  0.00    -0.040 C 
ATOM     14  C   LIG    1        3.302  -1.788   3.324  0.00  0.00    +0.030 C 
ATOM     15  C   LIG    1        2.441  -3.966   2.452  0.00  0.00    +0.050 C 
ENDBRANCH  12  13
ENDBRANCH   9  12
ENDBRANCH   1   9
TORSDOF 5
ENDMDL
MODEL      212
REMARK  Name = ZINC001172395644
REMARK                            x       y       z     vdW  Elec       q    Type
REMARK                         _______ _______ _______ _____ _____    ______ ____
ROOT
ATOM      1  N   LIG    1       -2.313  -0.742   1.328  0.00  0.00    -0.380 N 
ATOM      2  C   LIG    1       -2.244  -0.859   2.790  0.00  0.00    +0.310 C 
ATOM      3  H   LIG    1       -1.423  -0.996   0.927  0.00  0.00    +0.420 HD
ENDROOT
BRANCH   1   4
ATOM      4  C   LIG    1       -2.637   0.643   0.962  0.00  0.00    +0.160 C 
ATOM      5  C   LIG    1       -2.629   0.784  -0.562  0.00  0.00    +0.090 C 
BRANCH   4   7
ATOM      6  C   LIG    1       -1.951   1.868   3.029  0.00  0.00    +0.030 C 
ATOM      7  C   LIG    1       -1.597   1.587   1.567  0.00  0.00    +0.050 C 
ENDBRANCH   4   7
ENDBRANCH   1   4
BRANCH   1   8
ATOM      8  C   LIG    1       -3.355  -1.641   0.813  0.00  0.00    +0.160 C 
BRANCH   8   9
ATOM      9  C   LIG    1       -2.948  -3.093   1.070  0.00  0.00    +0.050 C 
ATOM     10  C   LIG    1       -1.668  -3.408   0.294  0.00  0.00    +0.030 C 
ENDBRANCH   8   9
BRANCH   8  11
ATOM     11  C   LIG    1       -4.678  -1.348   1.525  0.00  0.00    +0.040 C 
BRANCH  11  12
ATOM     12  C   LIG    1       -5.793  -2.184   0.892  0.00  0.00    -0.010 C 
ATOM     13  C   LIG    1       -6.013  -1.730  -0.552  0.00  0.00    +0.020 C 
ATOM     14  C   LIG    1       -7.086  -1.995   1.689  0.00  0.00    +0.040 C 
ENDBRANCH  11  12
ENDBRANCH   8  11
ENDBRANCH   1   8
TORSDOF 6
ENDMDL
MODEL      213
REMARK  Name = ZINC001172405861
REMARK                            x       y       z     vdW  Elec       q    Type
REMARK                         _______ _______ _______ _____ _____    ______ ____
ROOT
ATOM      1  N   LIG    1        2.152  -0.440  -0.922  0.00  0.00    -0.390 N 
ATOM      2  C   LIG    1        3.019  -1.106  -1.928  0.00  0.00    +0.270 C 
ATOM      3  C   LIG    1        4.398  -0.434  -1.708  0.00  0.00    +0.080 C 
ATOM      4  C   LIG    1        4.021   1.034  -1.399  0.00  0.00    -0.080 C 
ATOM      5  C   LIG    1        4.133   1.888  -2.664  0.00  0.00    +0.060 C 
ATOM      6  C   LIG    1        4.926   1.594  -0.300  0.00  0.00    +0.060 C 
ATOM      7  C   LIG    1        2.560   0.981  -0.913  0.00  0.00    +0.270 C 
ATOM      8  H   LIG    1        2.298  -0.850  -0.011  0.00  0.00    +0.420 HD
ENDROOT
BRANCH   1   9
ATOM      9  C   LIG    1        0.741  -0.560  -1.311  0.00  0.00    +0.170 C 
BRANCH   9  11
ATOM     10  C   LIG    1        0.087   1.595  -0.229  0.00  0.00    +0.030 C 
ATOM     11  C   LIG    1       -0.140   0.082  -0.237  0.00  0.00    +0.060 C 
ENDBRANCH   9  11
BRANCH   9  12
ATOM     12  C   LIG    1        0.375  -2.038  -1.454  0.00  0.00    +0.060 C 
BRANCH  12  13
ATOM     13  C   LIG    1        0.875  -2.559  -2.803  0.00  0.00    -0.040 C 
ATOM     14  C   LIG    1        0.127  -1.849  -3.933  0.00  0.00    +0.030 C 
ATOM     15  C   LIG    1        0.623  -4.066  -2.893  0.00  0.00    +0.040 C 
ENDBRANCH  12  13
ENDBRANCH   9  12
ENDBRANCH   1   9
TORSDOF 4
ENDMDL
MODEL      214
REMARK  Name = ZINC001207257512
REMARK                            x       y       z     vdW  Elec       q    Type
REMARK                         _______ _______ _______ _____ _____    ______ ____
ROOT
ATOM      1  C   LIG    1       -3.429  -0.952   1.193  0.00  0.00    +0.240 C 
ENDROOT
BRANCH   1   2
ATOM      2  N   LIG    1       -2.140  -0.279   1.398  0.00  0.00    -0.380 N 
ATOM      3  C   LIG    1       -2.349   1.174   1.454  0.00  0.00    +0.310 C 
ATOM      4  H   LIG    1       -1.730  -0.593   2.265  0.00  0.00    +0.420 HD
BRANCH   2   5
ATOM      5  C   LIG    1       -1.237  -0.601   0.285  0.00  0.00    +0.160 C 
ATOM      6  C   LIG    1       -1.905  -0.225  -1.039  0.00  0.00    +0.080 C 
BRANCH   5   8
ATOM      7  C   LIG    1       -0.177  -2.459   1.576  0.00  0.00    +0.030 C 
ATOM      8  C   LIG    1       -0.931  -2.100   0.294  0.00  0.00    +0.050 C 
ENDBRANCH   5   8
ENDBRANCH   2   5
ENDBRANCH   1   2
BRANCH   1   9
ATOM      9  C   LIG    1       -4.332  -0.704   2.404  0.00  0.00    +0.040 C 
BRANCH   9  10
ATOM     10  C   LIG    1       -5.675  -1.405   2.190  0.00  0.00    +0.000 C 
ATOM     11  C   LIG    1       -5.459  -2.919   2.149  0.00  0.00    +0.010 C 
ATOM     12  C   LIG    1       -6.802  -3.620   1.936  0.00  0.00    +0.010 C 
ATOM     13  C   LIG    1       -7.748  -3.271   3.086  0.00  0.00    +0.010 C 
ATOM     14  C   LIG    1       -7.964  -1.757   3.127  0.00  0.00    +0.010 C 
ATOM     15  C   LIG    1       -6.621  -1.056   3.341  0.00  0.00    +0.030 C 
ENDBRANCH   9  10
ENDBRANCH   1   9
TORSDOF 5
ENDMDL
MODEL      215
REMARK  Name = ZINC001172400532
REMARK                            x       y       z     vdW  Elec       q    Type
REMARK                         _______ _______ _______ _____ _____    ______ ____
ROOT
ATOM      1  N   LIG    1        1.852  -0.519  -0.554  0.00  0.00    -0.380 N 
ATOM      2  C   LIG    1        1.637  -1.137   0.760  0.00  0.00    +0.240 C 
ATOM      3  C   LIG    1        2.894  -0.973   1.617  0.00  0.00    +0.050 C 
ATOM      4  C   LIG    1        4.074  -1.653   0.918  0.00  0.00    +0.040 C 
ATOM      5  C   LIG    1        4.243  -1.053  -0.481  0.00  0.00    +0.010 C 
ATOM      6  C   LIG    1        4.587   0.433  -0.360  0.00  0.00    +0.040 C 
ATOM      7  C   LIG    1        2.935  -1.216  -1.259  0.00  0.00    +0.250 C 
ATOM      8  H   LIG    1        2.101   0.451  -0.432  0.00  0.00    +0.420 HD
ENDROOT
BRANCH   1   9
ATOM      9  C   LIG    1        0.617  -0.611  -1.345  0.00  0.00    +0.160 C 
BRANCH   9  11
ATOM     10  C   LIG    1        0.050   1.695  -0.570  0.00  0.00    +0.030 C 
ATOM     11  C   LIG    1       -0.464   0.260  -0.704  0.00  0.00    +0.050 C 
ENDBRANCH   9  11
BRANCH   9  12
ATOM     12  C   LIG    1        0.144  -2.066  -1.384  0.00  0.00    +0.050 C 
BRANCH  12  13
ATOM     13  C   LIG    1        0.679  -2.742  -2.648  0.00  0.00    -0.040 C 
ATOM     14  C   LIG    1        0.154  -2.006  -3.882  0.00  0.00    +0.030 C 
ATOM     15  C   LIG    1        0.208  -4.198  -2.685  0.00  0.00    +0.040 C 
ENDBRANCH  12  13
ENDBRANCH   9  12
ENDBRANCH   1   9
TORSDOF 4
ENDMDL
MODEL      216
REMARK  Name = ZINC001207254640
REMARK                            x       y       z     vdW  Elec       q    Type
REMARK                         _______ _______ _______ _____ _____    ______ ____
ROOT
ATOM      1  C   LIG    1       -2.767  -2.722  -0.167  0.00  0.00    +0.240 C 
ENDROOT
BRANCH   1   2
ATOM      2  N   LIG    1       -1.454  -2.149   0.159  0.00  0.00    -0.390 N 
ATOM      3  H   LIG    1       -1.162  -2.473   1.069  0.00  0.00    +0.420 HD
BRANCH   2   4
ATOM      4  C   LIG    1       -1.549  -0.683   0.170  0.00  0.00    +0.240 C 
ATOM      5  C   LIG    1       -2.451  -0.238   1.323  0.00  0.00    +0.080 C 
ENDBRANCH   2   4
BRANCH   2   6
ATOM      6  C   LIG    1       -0.472  -2.569  -0.849  0.00  0.00    +0.240 C 
BRANCH   6   8
ATOM      7  C   LIG    1        1.941  -2.513  -1.494  0.00  0.00    +0.060 C 
ATOM      8  C   LIG    1        0.918  -2.075  -0.444  0.00  0.00    +0.030 C 
ENDBRANCH   6   8
ENDBRANCH   2   6
ENDBRANCH   1   2
BRANCH   1   9
ATOM      9  C   LIG    1       -2.699  -4.247  -0.055  0.00  0.00    +0.040 C 
BRANCH   9  10
ATOM     10  C   LIG    1       -4.096  -4.836  -0.263  0.00  0.00    +0.000 C 
ATOM     11  C   LIG    1       -4.560  -4.555  -1.693  0.00  0.00    +0.010 C 
ATOM     12  C   LIG    1       -5.956  -5.144  -1.901  0.00  0.00    +0.010 C 
ATOM     13  C   LIG    1       -5.912  -6.656  -1.667  0.00  0.00    +0.010 C 
ATOM     14  C   LIG    1       -5.448  -6.936  -0.236  0.00  0.00    +0.010 C 
ATOM     15  C   LIG    1       -4.052  -6.347  -0.028  0.00  0.00    +0.030 C 
ENDBRANCH   9  10
ENDBRANCH   1   9
TORSDOF 6
ENDMDL
MODEL      217
REMARK  Name = ZINC001172405489
REMARK                            x       y       z     vdW  Elec       q    Type
REMARK                         _______ _______ _______ _____ _____    ______ ____
ROOT
ATOM      1  N   LIG    1       -0.194   0.186  -2.067  0.00  0.00    -0.390 N 
ATOM      2  C   LIG    1       -0.091   1.650  -1.886  0.00  0.00    +0.250 C 
ATOM      3  C   LIG    1       -0.304   2.293  -3.269  0.00  0.00    +0.060 C 
ATOM      4  C   LIG    1       -0.501   1.106  -4.240  0.00  0.00    +0.000 C 
ATOM      5  C   LIG    1        0.163  -0.074  -3.485  0.00  0.00    +0.270 C 
ATOM      6  H   LIG    1       -1.138  -0.121  -1.884  0.00  0.00    +0.420 HD
ENDROOT
BRANCH   4   7
ATOM      7  C   LIG    1        0.208   1.371  -5.569  0.00  0.00    +0.030 C 
ATOM      8  C   LIG    1       -0.474   2.538  -6.287  0.00  0.00    +0.030 C 
ENDBRANCH   4   7
BRANCH   1   9
ATOM      9  C   LIG    1        0.746  -0.503  -1.173  0.00  0.00    +0.160 C 
BRANCH   9  11
ATOM     10  C   LIG    1        0.473   1.142   0.688  0.00  0.00    +0.040 C 
ATOM     11  C   LIG    1        0.296  -0.322   0.278  0.00  0.00    +0.060 C 
ENDBRANCH   9  11
BRANCH   9  12
ATOM     12  C   LIG    1        0.776  -1.994  -1.515  0.00  0.00    +0.050 C 
BRANCH  12  13
ATOM     13  C   LIG    1        1.674  -2.220  -2.733  0.00  0.00    -0.040 C 
ATOM     14  C   LIG    1        1.661  -3.703  -3.108  0.00  0.00    +0.040 C 
ATOM     15  C   LIG    1        3.104  -1.792  -2.398  0.00  0.00    +0.030 C 
ENDBRANCH  12  13
ENDBRANCH   9  12
ENDBRANCH   1   9
TORSDOF 5
ENDMDL
MODEL      218
REMARK  Name = ZINC001172399272
REMARK                            x       y       z     vdW  Elec       q    Type
REMARK                         _______ _______ _______ _____ _____    ______ ____
ROOT
ATOM      1  N   LIG    1        1.974   0.054   1.089  0.00  0.00    -0.380 N 
ATOM      2  C   LIG    1        2.663  -0.471  -0.097  0.00  0.00    +0.330 C 
ATOM      3  H   LIG    1        2.551  -0.088   1.905  0.00  0.00    +0.420 HD
ENDROOT
BRANCH   1   4
ATOM      4  C   LIG    1        0.696  -0.650   1.265  0.00  0.00    +0.160 C 
BRANCH   4   6
ATOM      5  C   LIG    1       -0.941   0.800   0.058  0.00  0.00    +0.040 C 
ATOM      6  C   LIG    1       -0.145  -0.504  -0.005  0.00  0.00    +0.050 C 
ENDBRANCH   4   6
BRANCH   4   7
ATOM      7  C   LIG    1        0.964  -2.132   1.533  0.00  0.00    +0.060 C 
BRANCH   7   8
ATOM      8  C   LIG    1        1.720  -2.283   2.854  0.00  0.00    -0.040 C 
ATOM      9  C   LIG    1        2.115  -3.748   3.051  0.00  0.00    +0.050 C 
ATOM     10  C   LIG    1        0.823  -1.837   4.010  0.00  0.00    +0.030 C 
ENDBRANCH   7   8
ENDBRANCH   4   7
ENDBRANCH   1   4
BRANCH   1  11
ATOM     11  C   LIG    1        1.721   1.490   0.913  0.00  0.00    +0.250 C 
BRANCH  11  12
ATOM     12  C   LIG    1        3.050   2.249   0.940  0.00  0.00    +0.070 C 
BRANCH  12  13
ATOM     13  C   LIG    1        2.787   3.745   0.756  0.00  0.00    -0.060 C 
ATOM     14  C   LIG    1        3.158   4.675   1.912  0.00  0.00    +0.030 C 
ATOM     15  C   LIG    1        4.002   4.667   0.636  0.00  0.00    +0.030 C 
ENDBRANCH  12  13
ENDBRANCH  11  12
ENDBRANCH   1  11
TORSDOF 7
ENDMDL
MODEL      219
REMARK  Name = ZINC001172404546
REMARK                            x       y       z     vdW  Elec       q    Type
REMARK                         _______ _______ _______ _____ _____    ______ ____
ROOT
ATOM      1  N   LIG    1        0.477  -0.258  -2.590  0.00  0.00    -0.370 N 
ATOM      2  C   LIG    1       -0.144   1.054  -2.814  0.00  0.00    +0.310 C 
ATOM      3  H   LIG    1       -0.231  -0.923  -2.318  0.00  0.00    +0.420 HD
ENDROOT
BRANCH   1   4
ATOM      4  C   LIG    1        1.483  -0.148  -1.525  0.00  0.00    +0.150 C 
BRANCH   4   6
ATOM      5  C   LIG    1        2.871   1.320  -2.994  0.00  0.00    +0.030 C 
ATOM      6  C   LIG    1        2.191   1.204  -1.629  0.00  0.00    +0.050 C 
ENDBRANCH   4   6
BRANCH   4   7
ATOM      7  C   LIG    1        0.796  -0.261  -0.162  0.00  0.00    +0.050 C 
ATOM      8  C   LIG    1        0.210  -1.665  -0.001  0.00  0.00    +0.030 C 
ENDBRANCH   4   7
ENDBRANCH   1   4
BRANCH   1   9
ATOM      9  C   LIG    1        1.124  -0.712  -3.829  0.00  0.00    +0.150 C 
BRANCH   9  10
ATOM     10  C   LIG    1        1.236  -2.237  -3.817  0.00  0.00    +0.060 C 
ATOM     11  C   LIG    1        2.212  -2.668  -2.720  0.00  0.00    +0.030 C 
ENDBRANCH   9  10
BRANCH   9  12
ATOM     12  C   LIG    1        0.287  -0.271  -5.032  0.00  0.00    +0.060 C 
BRANCH  12  13
ATOM     13  C   LIG    1        0.714   1.134  -5.463  0.00  0.00    -0.040 C 
ATOM     14  C   LIG    1       -0.236   1.644  -6.548  0.00  0.00    +0.040 C 
ATOM     15  C   LIG    1        2.140   1.087  -6.013  0.00  0.00    +0.030 C 
ENDBRANCH  12  13
ENDBRANCH   9  12
ENDBRANCH   1   9
TORSDOF 7
ENDMDL
MODEL      220
REMARK  Name = ZINC001172403962
REMARK                            x       y       z     vdW  Elec       q    Type
REMARK                         _______ _______ _______ _____ _____    ______ ____
ROOT
ATOM      1  N   LIG    1        0.376   0.315   0.231  0.00  0.00    -0.390 N 
ATOM      2  C   LIG    1        1.784   0.443   0.664  0.00  0.00    +0.250 C 
ATOM      3  C   LIG    1        2.618   0.110  -0.598  0.00  0.00    +0.080 C 
ATOM      4  C   LIG    1        1.773  -1.020  -1.243  0.00  0.00    +0.070 C 
ATOM      5  C   LIG    1        0.327  -0.592  -0.931  0.00  0.00    +0.150 C 
ATOM      6  H   LIG    1        0.018   1.221  -0.030  0.00  0.00    +0.420 HD
ENDROOT
BRANCH   5   7
ATOM      7  C   LIG    1       -0.520  -1.822  -0.600  0.00  0.00    +0.040 C 
ATOM      8  C   LIG    1       -0.981  -2.488  -1.898  0.00  0.00    +0.030 C 
ENDBRANCH   5   7
BRANCH   1   9
ATOM      9  C   LIG    1       -0.429  -0.240   1.326  0.00  0.00    +0.170 C 
BRANCH   9  11
ATOM     10  C   LIG    1       -2.264   1.450   1.180  0.00  0.00    +0.030 C 
ATOM     11  C   LIG    1       -1.915  -0.031   1.023  0.00  0.00    +0.060 C 
ENDBRANCH   9  11
BRANCH   9  12
ATOM     12  C   LIG    1       -0.142  -1.737   1.462  0.00  0.00    +0.070 C 
BRANCH  12  13
ATOM     13  C   LIG    1       -0.018  -2.099   2.944  0.00  0.00    -0.030 C 
ATOM     14  C   LIG    1       -0.033  -3.621   3.099  0.00  0.00    +0.040 C 
ATOM     15  C   LIG    1       -1.191  -1.495   3.717  0.00  0.00    +0.030 C 
ENDBRANCH  12  13
ENDBRANCH   9  12
ENDBRANCH   1   9
TORSDOF 5
ENDMDL
MODEL      221
REMARK  Name = ZINC001172402876
REMARK                            x       y       z     vdW  Elec       q    Type
REMARK                         _______ _______ _______ _____ _____    ______ ____
ROOT
ATOM      1  N   LIG    1       -2.149  -0.008   1.049  0.00  0.00    -0.370 N 
ATOM      2  C   LIG    1       -2.034   1.454   1.015  0.00  0.00    +0.240 C 
ATOM      3  C   LIG    1       -2.784   2.057   2.205  0.00  0.00    +0.060 C 
ATOM      4  C   LIG    1       -4.260   1.657   2.127  0.00  0.00    +0.030 C 
ATOM      5  C   LIG    1       -4.364   0.130   2.088  0.00  0.00    +0.060 C 
ATOM      6  C   LIG    1       -3.556  -0.400   0.901  0.00  0.00    +0.160 C 
ATOM      7  C   LIG    1       -4.115   0.186  -0.397  0.00  0.00    +0.090 C 
ATOM      8  H   LIG    1       -1.796  -0.352   1.930  0.00  0.00    +0.420 HD
ENDROOT
BRANCH   1   9
ATOM      9  C   LIG    1       -1.363  -0.586  -0.050  0.00  0.00    +0.150 C 
BRANCH   9  11
ATOM     10  C   LIG    1        0.971  -0.437  -0.928  0.00  0.00    +0.040 C 
ATOM     11  C   LIG    1       -0.226   0.369  -0.420  0.00  0.00    +0.030 C 
ENDBRANCH   9  11
BRANCH   9  12
ATOM     12  C   LIG    1       -0.778  -1.929   0.392  0.00  0.00    +0.060 C 
BRANCH  12  13
ATOM     13  C   LIG    1       -1.915  -2.920   0.650  0.00  0.00    -0.040 C 
ATOM     14  C   LIG    1       -1.332  -4.254   1.119  0.00  0.00    +0.050 C 
ATOM     15  C   LIG    1       -2.708  -3.135  -0.641  0.00  0.00    +0.020 C 
ENDBRANCH  12  13
ENDBRANCH   9  12
ENDBRANCH   1   9
TORSDOF 4
ENDMDL
MODEL      222
REMARK  Name = ZINC001172400526
REMARK                            x       y       z     vdW  Elec       q    Type
REMARK                         _______ _______ _______ _____ _____    ______ ____
ROOT
ATOM      1  N   LIG    1        1.852  -0.519  -0.554  0.00  0.00    -0.380 N 
ATOM      2  C   LIG    1        1.637  -1.137   0.760  0.00  0.00    +0.240 C 
ATOM      3  C   LIG    1        2.894  -0.972   1.617  0.00  0.00    +0.060 C 
ATOM      4  C   LIG    1        4.074  -1.653   0.919  0.00  0.00    +0.040 C 
ATOM      5  C   LIG    1        4.243  -1.052  -0.480  0.00  0.00    -0.020 C 
ATOM      6  C   LIG    1        5.371  -1.779  -1.216  0.00  0.00    +0.070 C 
ATOM      7  C   LIG    1        2.935  -1.216  -1.259  0.00  0.00    +0.250 C 
ATOM      8  H   LIG    1        2.101   0.451  -0.432  0.00  0.00    +0.420 HD
ENDROOT
BRANCH   1   9
ATOM      9  C   LIG    1        0.617  -0.611  -1.345  0.00  0.00    +0.160 C 
BRANCH   9  11
ATOM     10  C   LIG    1        0.050   1.695  -0.570  0.00  0.00    +0.030 C 
ATOM     11  C   LIG    1       -0.465   0.260  -0.704  0.00  0.00    +0.050 C 
ENDBRANCH   9  11
BRANCH   9  12
ATOM     12  C   LIG    1        0.144  -2.066  -1.384  0.00  0.00    +0.050 C 
BRANCH  12  13
ATOM     13  C   LIG    1        0.679  -2.743  -2.647  0.00  0.00    -0.040 C 
ATOM     14  C   LIG    1        0.155  -2.006  -3.882  0.00  0.00    +0.030 C 
ATOM     15  C   LIG    1        0.209  -4.198  -2.684  0.00  0.00    +0.040 C 
ENDBRANCH  12  13
ENDBRANCH   9  12
ENDBRANCH   1   9
TORSDOF 4
ENDMDL
MODEL      223
REMARK  Name = ZINC001172397955
REMARK                            x       y       z     vdW  Elec       q    Type
REMARK                         _______ _______ _______ _____ _____    ______ ____
ROOT
ATOM      1  C   LIG    1       -3.111  -2.236   1.095  0.00  0.00    +0.150 C 
ENDROOT
BRANCH   1   3
ATOM      2  C   LIG    1       -2.098  -3.899  -0.471  0.00  0.00    +0.060 C 
ATOM      3  C   LIG    1       -1.804  -2.730   0.471  0.00  0.00    +0.030 C 
ENDBRANCH   1   3
BRANCH   1   4
ATOM      4  N   LIG    1       -2.811  -1.273   2.162  0.00  0.00    -0.380 N 
ATOM      5  H   LIG    1       -3.573  -1.254   2.823  0.00  0.00    +0.420 HD
BRANCH   4   6
ATOM      6  C   LIG    1       -2.635   0.064   1.580  0.00  0.00    +0.160 C 
ATOM      7  C   LIG    1       -2.540   1.101   2.702  0.00  0.00    +0.080 C 
ATOM      8  C   LIG    1       -3.830   0.391   0.683  0.00  0.00    +0.080 C 
ENDBRANCH   4   6
BRANCH   4   9
ATOM      9  C   LIG    1       -1.576  -1.673   2.850  0.00  0.00    +0.240 C 
ATOM     10  C   LIG    1       -1.596  -1.140   4.284  0.00  0.00    +0.080 C 
ENDBRANCH   4   9
ENDBRANCH   1   4
BRANCH   1  11
ATOM     11  C   LIG    1       -3.877  -3.424   1.680  0.00  0.00    +0.060 C 
BRANCH  11  12
ATOM     12  C   LIG    1       -5.320  -3.005   1.972  0.00  0.00    -0.040 C 
ATOM     13  C   LIG    1       -5.972  -4.036   2.897  0.00  0.00    +0.040 C 
ATOM     14  C   LIG    1       -6.104  -2.928   0.661  0.00  0.00    +0.030 C 
ENDBRANCH  11  12
ENDBRANCH   1  11
TORSDOF 6
ENDMDL
MODEL      224
REMARK  Name = ZINC001172402878
REMARK                            x       y       z     vdW  Elec       q    Type
REMARK                         _______ _______ _______ _____ _____    ______ ____
ROOT
ATOM      1  N   LIG    1       -2.258   0.017   1.172  0.00  0.00    -0.380 N 
ATOM      2  C   LIG    1       -1.632  -0.351   2.448  0.00  0.00    +0.240 C 
ATOM      3  C   LIG    1       -2.393   0.306   3.601  0.00  0.00    +0.060 C 
ATOM      4  C   LIG    1       -2.353   1.828   3.431  0.00  0.00    +0.030 C 
ATOM      5  C   LIG    1       -2.941   2.194   2.065  0.00  0.00    +0.060 C 
ATOM      6  C   LIG    1       -2.158   1.467   0.969  0.00  0.00    +0.160 C 
ATOM      7  C   LIG    1       -2.740   1.829  -0.398  0.00  0.00    +0.090 C 
ATOM      8  H   LIG    1       -3.230  -0.254   1.185  0.00  0.00    +0.420 HD
ENDROOT
BRANCH   1   9
ATOM      9  C   LIG    1       -1.572  -0.678   0.074  0.00  0.00    +0.160 C 
BRANCH   9  11
ATOM     10  C   LIG    1        0.073   0.974  -0.824  0.00  0.00    +0.040 C 
ATOM     11  C   LIG    1       -0.098  -0.268   0.053  0.00  0.00    +0.050 C 
ENDBRANCH   9  11
BRANCH   9  12
ATOM     12  C   LIG    1       -1.678  -2.190   0.282  0.00  0.00    +0.060 C 
BRANCH  12  13
ATOM     13  C   LIG    1       -3.148  -2.612   0.219  0.00  0.00    -0.040 C 
ATOM     14  C   LIG    1       -3.270  -4.091   0.588  0.00  0.00    +0.050 C 
ATOM     15  C   LIG    1       -3.681  -2.393  -1.198  0.00  0.00    +0.030 C 
ENDBRANCH  12  13
ENDBRANCH   9  12
ENDBRANCH   1   9
TORSDOF 4
ENDMDL
MODEL      225
REMARK  Name = ZINC001172405862
REMARK                            x       y       z     vdW  Elec       q    Type
REMARK                         _______ _______ _______ _____ _____    ______ ____
ROOT
ATOM      1  N   LIG    1       -0.287  -0.189  -2.460  0.00  0.00    -0.390 N 
ATOM      2  C   LIG    1        0.470  -0.476  -3.705  0.00  0.00    +0.270 C 
ATOM      3  C   LIG    1       -0.612  -0.374  -4.809  0.00  0.00    +0.080 C 
ATOM      4  C   LIG    1       -1.858  -0.988  -4.130  0.00  0.00    -0.080 C 
ATOM      5  C   LIG    1       -2.008  -2.458  -4.526  0.00  0.00    +0.060 C 
ATOM      6  C   LIG    1       -3.113  -0.204  -4.517  0.00  0.00    +0.060 C 
ATOM      7  C   LIG    1       -1.595  -0.862  -2.617  0.00  0.00    +0.250 C 
ATOM      8  H   LIG    1       -0.419   0.806  -2.354  0.00  0.00    +0.420 HD
ENDROOT
BRANCH   1   9
ATOM      9  C   LIG    1        0.425  -0.733  -1.296  0.00  0.00    +0.160 C 
BRANCH   9  11
ATOM     10  C   LIG    1       -0.383   1.105   0.191  0.00  0.00    +0.030 C 
ATOM     11  C   LIG    1       -0.357  -0.410  -0.022  0.00  0.00    +0.050 C 
ENDBRANCH   9  11
BRANCH   9  12
ATOM     12  C   LIG    1        0.558  -2.250  -1.443  0.00  0.00    +0.040 C 
BRANCH  12  13
ATOM     13  C   LIG    1        1.436  -2.797  -0.315  0.00  0.00    -0.010 C 
ATOM     14  C   LIG    1        2.860  -2.259  -0.471  0.00  0.00    +0.020 C 
ATOM     15  C   LIG    1        1.457  -4.325  -0.381  0.00  0.00    +0.040 C 
ENDBRANCH  12  13
ENDBRANCH   9  12
ENDBRANCH   1   9
TORSDOF 4
ENDMDL
MODEL      226
REMARK  Name = ZINC001172402323
REMARK                            x       y       z     vdW  Elec       q    Type
REMARK                         _______ _______ _______ _____ _____    ______ ____
ROOT
ATOM      1  N   LIG    1        1.576  -2.417   2.525  0.00  0.00    -0.380 N 
ATOM      2  H   LIG    1        1.506  -2.246   3.517  0.00  0.00    +0.420 HD
ENDROOT
BRANCH   1   3
ATOM      3  C   LIG    1        0.465  -1.748   1.834  0.00  0.00    +0.240 C 
ATOM      4  C   LIG    1       -0.861  -2.180   2.463  0.00  0.00    +0.080 C 
ENDBRANCH   1   3
BRANCH   1   5
ATOM      5  C   LIG    1        2.852  -1.888   2.027  0.00  0.00    +0.250 C 
BRANCH   5   6
ATOM      6  C   LIG    1        2.991  -0.420   2.436  0.00  0.00    +0.030 C 
BRANCH   6   8
ATOM      7  C   LIG    1        4.459   1.598   2.325  0.00  0.00    +0.030 C 
ATOM      8  C   LIG    1        4.321   0.130   1.916  0.00  0.00    +0.020 C 
ENDBRANCH   6   8
ENDBRANCH   5   6
ENDBRANCH   1   5
BRANCH   1   9
ATOM      9  C   LIG    1        1.511  -3.862   2.271  0.00  0.00    +0.160 C 
BRANCH   9  10
ATOM     10  C   LIG    1        2.135  -4.615   3.448  0.00  0.00    +0.050 C 
ATOM     11  C   LIG    1        1.278  -4.407   4.698  0.00  0.00    +0.030 C 
ENDBRANCH   9  10
BRANCH   9  12
ATOM     12  C   LIG    1        2.282  -4.190   0.991  0.00  0.00    +0.060 C 
BRANCH  12  13
ATOM     13  C   LIG    1        1.561  -3.573  -0.210  0.00  0.00    -0.040 C 
ATOM     14  C   LIG    1        0.171  -4.198  -0.346  0.00  0.00    +0.020 C 
ATOM     15  C   LIG    1        2.368  -3.843  -1.482  0.00  0.00    +0.050 C 
ENDBRANCH  12  13
ENDBRANCH   9  12
ENDBRANCH   1   9
TORSDOF 8
ENDMDL
MODEL      227
REMARK  Name = ZINC000685612316
REMARK                            x       y       z     vdW  Elec       q    Type
REMARK                         _______ _______ _______ _____ _____    ______ ____
ROOT
ATOM      1  N   LIG    1        2.989  -2.037   2.520  0.00  0.00    -0.380 N 
ATOM      2  C   LIG    1        2.733  -0.592   2.447  0.00  0.00    +0.320 C 
ATOM      3  H   LIG    1        3.657  -2.296   1.810  0.00  0.00    +0.420 HD
ENDROOT
BRANCH   1   4
ATOM      4  C   LIG    1        3.528  -2.372   3.845  0.00  0.00    +0.200 C 
ATOM      5  C   LIG    1        3.617  -3.864   3.983  0.00  0.00    -0.110 C 
ATOM      6  C   LIG    1        4.624  -4.485   4.507  0.00  0.00    +0.070 C 
ATOM      7  C   LIG    1        5.848  -3.801   5.042  0.00  0.00    +0.060 C 
ATOM      8  C   LIG    1        5.564  -2.314   5.270  0.00  0.00    +0.050 C 
ATOM      9  C   LIG    1        4.916  -1.748   4.001  0.00  0.00    +0.040 C 
ENDBRANCH   1   4
BRANCH   1  10
ATOM     10  C   LIG    1        1.733  -2.768   2.303  0.00  0.00    +0.150 C 
ATOM     11  C   LIG    1        1.422  -2.813   0.806  0.00  0.00    +0.090 C 
BRANCH  10  12
ATOM     12  C   LIG    1        0.596  -2.058   3.039  0.00  0.00    +0.050 C 
BRANCH  12  13
ATOM     13  C   LIG    1        0.634  -2.435   4.522  0.00  0.00    +0.010 C 
BRANCH  13  15
ATOM     14  C   LIG    1       -0.558  -2.235   6.709  0.00  0.00    +0.010 C 
ATOM     15  C   LIG    1       -0.596  -1.858   5.226  0.00  0.00    +0.010 C 
ENDBRANCH  13  15
ENDBRANCH  12  13
ENDBRANCH  10  12
ENDBRANCH   1  10
TORSDOF 5
ENDMDL
MODEL      228
REMARK  Name = ZINC000685612315
REMARK                            x       y       z     vdW  Elec       q    Type
REMARK                         _______ _______ _______ _____ _____    ______ ____
ROOT
ATOM      1  N   LIG    1        2.987  -2.037   2.522  0.00  0.00    -0.380 N 
ATOM      2  C   LIG    1        2.680  -0.607   2.384  0.00  0.00    +0.310 C 
ATOM      3  H   LIG    1        3.662  -2.306   1.821  0.00  0.00    +0.420 HD
ENDROOT
BRANCH   1   4
ATOM      4  C   LIG    1        3.541  -2.292   3.858  0.00  0.00    +0.210 C 
ATOM      5  C   LIG    1        4.888  -1.640   3.971  0.00  0.00    -0.110 C 
ATOM      6  C   LIG    1        5.920  -2.198   4.519  0.00  0.00    +0.070 C 
ATOM      7  C   LIG    1        5.917  -3.578   5.108  0.00  0.00    +0.060 C 
ATOM      8  C   LIG    1        4.479  -4.042   5.354  0.00  0.00    +0.050 C 
ATOM      9  C   LIG    1        3.670  -3.802   4.075  0.00  0.00    +0.040 C 
ENDBRANCH   1   4
BRANCH   1  10
ATOM     10  C   LIG    1        1.758  -2.821   2.344  0.00  0.00    +0.150 C 
ATOM     11  C   LIG    1        1.444  -2.944   0.851  0.00  0.00    +0.090 C 
BRANCH  10  12
ATOM     12  C   LIG    1        0.598  -2.120   3.053  0.00  0.00    +0.050 C 
BRANCH  12  13
ATOM     13  C   LIG    1        0.655  -2.428   4.551  0.00  0.00    +0.010 C 
BRANCH  13  15
ATOM     14  C   LIG    1       -0.535  -2.173   6.733  0.00  0.00    +0.010 C 
ATOM     15  C   LIG    1       -0.592  -1.865   5.235  0.00  0.00    +0.010 C 
ENDBRANCH  13  15
ENDBRANCH  12  13
ENDBRANCH  10  12
ENDBRANCH   1  10
TORSDOF 5
ENDMDL
MODEL      229
REMARK  Name = ZINC000685612318
REMARK                            x       y       z     vdW  Elec       q    Type
REMARK                         _______ _______ _______ _____ _____    ______ ____
ROOT
ATOM      1  N   LIG    1        0.798  -2.164   3.431  0.00  0.00    -0.380 N 
ATOM      2  C   LIG    1        1.581  -2.548   4.613  0.00  0.00    +0.330 C 
ATOM      3  H   LIG    1       -0.093  -2.638   3.449  0.00  0.00    +0.420 HD
ENDROOT
BRANCH   1   4
ATOM      4  C   LIG    1        0.580  -0.711   3.438  0.00  0.00    +0.210 C 
ATOM      5  C   LIG    1       -0.299  -0.334   2.282  0.00  0.00    -0.110 C 
ATOM      6  C   LIG    1       -1.274   0.515   2.359  0.00  0.00    +0.070 C 
ATOM      7  C   LIG    1       -1.667   1.233   3.617  0.00  0.00    +0.060 C 
ATOM      8  C   LIG    1       -0.534   1.157   4.643  0.00  0.00    +0.050 C 
ATOM      9  C   LIG    1       -0.084  -0.305   4.756  0.00  0.00    +0.040 C 
ENDBRANCH   1   4
BRANCH   1  10
ATOM     10  C   LIG    1        1.529  -2.543   2.215  0.00  0.00    +0.160 C 
ATOM     11  C   LIG    1        2.927  -1.921   2.246  0.00  0.00    +0.080 C 
BRANCH  10  12
ATOM     12  C   LIG    1        1.650  -4.066   2.146  0.00  0.00    +0.050 C 
BRANCH  12  13
ATOM     13  C   LIG    1        0.260  -4.681   1.976  0.00  0.00    +0.000 C 
BRANCH  13  15
ATOM     14  C   LIG    1       -1.000  -6.823   1.714  0.00  0.00    +0.010 C 
ATOM     15  C   LIG    1        0.370  -6.207   2.005  0.00  0.00    +0.010 C 
ENDBRANCH  13  15
ENDBRANCH  12  13
ENDBRANCH  10  12
ENDBRANCH   1  10
TORSDOF 5
ENDMDL
MODEL      230
REMARK  Name = ZINC000685612317
REMARK                            x       y       z     vdW  Elec       q    Type
REMARK                         _______ _______ _______ _____ _____    ______ ____
ROOT
ATOM      1  N   LIG    1        0.798  -2.164   3.431  0.00  0.00    -0.380 N 
ATOM      2  C   LIG    1        1.757  -2.521   4.485  0.00  0.00    +0.320 C 
ATOM      3  H   LIG    1       -0.078  -2.636   3.599  0.00  0.00    +0.420 HD
ENDROOT
BRANCH   1   4
ATOM      4  C   LIG    1        0.580  -0.711   3.438  0.00  0.00    +0.210 C 
ATOM      5  C   LIG    1       -0.071  -0.313   4.731  0.00  0.00    -0.110 C 
ATOM      6  C   LIG    1       -1.044   0.536   4.821  0.00  0.00    +0.070 C 
ATOM      7  C   LIG    1       -1.664   1.232   3.646  0.00  0.00    +0.060 C 
ATOM      8  C   LIG    1       -0.741   1.137   2.429  0.00  0.00    +0.050 C 
ATOM      9  C   LIG    1       -0.317  -0.326   2.260  0.00  0.00    +0.040 C 
ENDBRANCH   1   4
BRANCH   1  10
ATOM     10  C   LIG    1        1.331  -2.572   2.124  0.00  0.00    +0.160 C 
ATOM     11  C   LIG    1        2.705  -1.933   1.913  0.00  0.00    +0.080 C 
BRANCH  10  12
ATOM     12  C   LIG    1        1.465  -4.096   2.081  0.00  0.00    +0.050 C 
BRANCH  12  13
ATOM     13  C   LIG    1        0.077  -4.732   2.180  0.00  0.00    +0.000 C 
BRANCH  13  15
ATOM     14  C   LIG    1       -1.175  -6.894   2.183  0.00  0.00    +0.010 C 
ATOM     15  C   LIG    1        0.215  -6.256   2.205  0.00  0.00    +0.010 C 
ENDBRANCH  13  15
ENDBRANCH  12  13
ENDBRANCH  10  12
ENDBRANCH   1  10
TORSDOF 5
ENDMDL
MODEL      231
REMARK  Name = ZINC001172402247
REMARK                            x       y       z     vdW  Elec       q    Type
REMARK                         _______ _______ _______ _____ _____    ______ ____
ROOT
ATOM      1  N   LIG    1        0.916  -4.665   2.703  0.00  0.00    -0.380 N 
ATOM      2  C   LIG    1       -0.336  -4.809   3.459  0.00  0.00    +0.330 C 
ATOM      3  H   LIG    1        1.057  -3.693   2.469  0.00  0.00    +0.420 HD
ENDROOT
BRANCH   1   4
ATOM      4  C   LIG    1        0.837  -5.459   1.470  0.00  0.00    +0.250 C 
BRANCH   4   5
ATOM      5  C   LIG    1       -0.211  -4.850   0.537  0.00  0.00    +0.030 C 
BRANCH   5   6
ATOM      6  C   LIG    1       -0.293  -5.677  -0.748  0.00  0.00    +0.020 C 
BRANCH   6   8
ATOM      7  C   LIG    1       -1.423  -5.895  -2.965  0.00  0.00    +0.020 C 
ATOM      8  C   LIG    1       -1.342  -5.068  -1.681  0.00  0.00    +0.010 C 
ENDBRANCH   6   8
ENDBRANCH   5   6
ENDBRANCH   4   5
ENDBRANCH   1   4
BRANCH   1   9
ATOM      9  C   LIG    1        2.040  -5.139   3.521  0.00  0.00    +0.160 C 
BRANCH   9  10
ATOM     10  C   LIG    1        1.879  -6.637   3.788  0.00  0.00    +0.050 C 
ATOM     11  C   LIG    1        2.426  -7.429   2.599  0.00  0.00    +0.030 C 
ENDBRANCH   9  10
BRANCH   9  12
ATOM     12  C   LIG    1        2.059  -4.383   4.851  0.00  0.00    +0.060 C 
BRANCH  12  13
ATOM     13  C   LIG    1        2.296  -2.895   4.587  0.00  0.00    -0.050 C 
ATOM     14  C   LIG    1        3.702  -2.695   4.019  0.00  0.00    +0.030 C 
ATOM     15  C   LIG    1        2.160  -2.117   5.898  0.00  0.00    +0.050 C 
ENDBRANCH  12  13
ENDBRANCH   9  12
ENDBRANCH   1   9
TORSDOF 8
ENDMDL
MODEL      232
REMARK  Name = ZINC001172399918
REMARK                            x       y       z     vdW  Elec       q    Type
REMARK                         _______ _______ _______ _____ _____    ______ ____
ROOT
ATOM      1  N   LIG    1       -1.552  -2.468  -0.189  0.00  0.00    -0.380 N 
ATOM      2  H   LIG    1       -1.282  -3.012   0.617  0.00  0.00    +0.420 HD
ENDROOT
BRANCH   1   3
ATOM      3  C   LIG    1       -1.468  -1.038   0.135  0.00  0.00    +0.240 C 
ATOM      4  C   LIG    1       -2.288  -0.751   1.394  0.00  0.00    +0.080 C 
ENDBRANCH   1   3
BRANCH   1   5
ATOM      5  C   LIG    1       -0.649  -2.770  -1.308  0.00  0.00    +0.240 C 
BRANCH   5   7
ATOM      6  C   LIG    1        1.741  -2.888  -2.027  0.00  0.00    +0.060 C 
ATOM      7  C   LIG    1        0.801  -2.574  -0.862  0.00  0.00    +0.020 C 
ENDBRANCH   5   7
ENDBRANCH   1   5
BRANCH   1   8
ATOM      8  C   LIG    1       -2.931  -2.805  -0.568  0.00  0.00    +0.160 C 
BRANCH   8   9
ATOM      9  C   LIG    1       -3.152  -2.465  -2.043  0.00  0.00    +0.050 C 
ATOM     10  C   LIG    1       -3.073  -0.950  -2.235  0.00  0.00    +0.030 C 
ENDBRANCH   8   9
BRANCH   8  11
ATOM     11  C   LIG    1       -3.170  -4.300  -0.347  0.00  0.00    +0.040 C 
BRANCH  11  12
ATOM     12  C   LIG    1       -4.646  -4.621  -0.590  0.00  0.00    -0.010 C 
ATOM     13  C   LIG    1       -5.499  -3.941   0.482  0.00  0.00    +0.020 C 
ATOM     14  C   LIG    1       -4.855  -6.136  -0.523  0.00  0.00    +0.040 C 
ENDBRANCH  11  12
ENDBRANCH   8  11
ENDBRANCH   1   8
TORSDOF 7
ENDMDL
MODEL      233
REMARK  Name = ZINC001172404545
REMARK                            x       y       z     vdW  Elec       q    Type
REMARK                         _______ _______ _______ _____ _____    ______ ____
ROOT
ATOM      1  N   LIG    1        1.612  -0.374  -2.399  0.00  0.00    -0.380 N 
ATOM      2  C   LIG    1        2.467   0.809  -2.227  0.00  0.00    +0.300 C 
ATOM      3  H   LIG    1        0.724  -0.093  -2.788  0.00  0.00    +0.420 HD
ENDROOT
BRANCH   1   4
ATOM      4  C   LIG    1        1.396  -1.016  -1.095  0.00  0.00    +0.150 C 
BRANCH   4   6
ATOM      5  C   LIG    1        2.228  -1.171   1.256  0.00  0.00    +0.060 C 
ATOM      6  C   LIG    1        2.336  -0.396  -0.059  0.00  0.00    +0.040 C 
ENDBRANCH   4   6
BRANCH   4   7
ATOM      7  C   LIG    1       -0.055  -0.804  -0.658  0.00  0.00    +0.050 C 
ATOM      8  C   LIG    1       -0.992  -1.513  -1.638  0.00  0.00    +0.020 C 
ENDBRANCH   4   7
ENDBRANCH   1   4
BRANCH   1   9
ATOM      9  C   LIG    1        2.268  -1.323  -3.309  0.00  0.00    +0.160 C 
BRANCH   9  10
ATOM     10  C   LIG    1        2.059  -0.870  -4.755  0.00  0.00    +0.060 C 
ATOM     11  C   LIG    1        2.619   0.543  -4.933  0.00  0.00    +0.030 C 
ENDBRANCH   9  10
BRANCH   9  12
ATOM     12  C   LIG    1        1.661  -2.714  -3.118  0.00  0.00    +0.030 C 
BRANCH  12  13
ATOM     13  C   LIG    1        2.057  -3.609  -4.294  0.00  0.00    -0.010 C 
ATOM     14  C   LIG    1        1.405  -4.984  -4.131  0.00  0.00    +0.040 C 
ATOM     15  C   LIG    1        3.579  -3.768  -4.324  0.00  0.00    +0.030 C 
ENDBRANCH  12  13
ENDBRANCH   9  12
ENDBRANCH   1   9
TORSDOF 7
ENDMDL
MODEL      234
REMARK  Name = ZINC001172399271
REMARK                            x       y       z     vdW  Elec       q    Type
REMARK                         _______ _______ _______ _____ _____    ______ ____
ROOT
ATOM      1  N   LIG    1       -0.056  -0.284   2.381  0.00  0.00    -0.380 N 
ATOM      2  C   LIG    1       -1.323  -0.951   2.056  0.00  0.00    +0.320 C 
ATOM      3  H   LIG    1       -0.227   0.695   2.557  0.00  0.00    +0.420 HD
ENDROOT
BRANCH   1   4
ATOM      4  C   LIG    1        0.875  -0.423   1.252  0.00  0.00    +0.160 C 
BRANCH   4   6
ATOM      5  C   LIG    1        0.241   1.835   0.391  0.00  0.00    +0.030 C 
ATOM      6  C   LIG    1        0.333   0.347   0.046  0.00  0.00    +0.050 C 
ENDBRANCH   4   6
BRANCH   4   7
ATOM      7  C   LIG    1        1.018  -1.903   0.890  0.00  0.00    +0.040 C 
BRANCH   7   8
ATOM      8  C   LIG    1        2.080  -2.060  -0.200  0.00  0.00    -0.010 C 
ATOM      9  C   LIG    1        2.126  -3.518  -0.661  0.00  0.00    +0.040 C 
ATOM     10  C   LIG    1        3.447  -1.659   0.359  0.00  0.00    +0.020 C 
ENDBRANCH   7   8
ENDBRANCH   4   7
ENDBRANCH   1   4
BRANCH   1  11
ATOM     11  C   LIG    1        0.530  -0.901   3.578  0.00  0.00    +0.250 C 
BRANCH  11  12
ATOM     12  C   LIG    1       -0.362  -0.616   4.787  0.00  0.00    +0.070 C 
BRANCH  12  13
ATOM     13  C   LIG    1        0.248  -1.259   6.034  0.00  0.00    -0.060 C 
ATOM     14  C   LIG    1        0.696  -0.328   7.162  0.00  0.00    +0.030 C 
ATOM     15  C   LIG    1       -0.558  -1.187   7.333  0.00  0.00    +0.030 C 
ENDBRANCH  12  13
ENDBRANCH  11  12
ENDBRANCH   1  11
TORSDOF 7
ENDMDL
MODEL      235
REMARK  Name = ZINC001172403961
REMARK                            x       y       z     vdW  Elec       q    Type
REMARK                         _______ _______ _______ _____ _____    ______ ____
ROOT
ATOM      1  N   LIG    1       -0.035  -0.547   1.887  0.00  0.00    -0.390 N 
ATOM      2  C   LIG    1       -1.323  -1.238   1.666  0.00  0.00    +0.250 C 
ATOM      3  C   LIG    1       -1.717  -1.794   3.057  0.00  0.00    +0.080 C 
ATOM      4  C   LIG    1       -0.338  -2.212   3.630  0.00  0.00    +0.070 C 
ATOM      5  C   LIG    1        0.610  -1.131   3.077  0.00  0.00    +0.160 C 
ATOM      6  H   LIG    1       -0.199   0.437   2.038  0.00  0.00    +0.420 HD
ENDROOT
BRANCH   5   7
ATOM      7  C   LIG    1        1.950  -1.760   2.692  0.00  0.00    +0.030 C 
ATOM      8  C   LIG    1        2.604  -2.368   3.935  0.00  0.00    +0.060 C 
ENDBRANCH   5   7
BRANCH   1   9
ATOM      9  C   LIG    1        0.832  -0.731   0.715  0.00  0.00    +0.160 C 
BRANCH   9  11
ATOM     10  C   LIG    1        0.722   1.702   0.158  0.00  0.00    +0.030 C 
ATOM     11  C   LIG    1        0.456   0.288  -0.362  0.00  0.00    +0.050 C 
ENDBRANCH   9  11
BRANCH   9  12
ATOM     12  C   LIG    1        0.650  -2.146   0.164  0.00  0.00    +0.040 C 
BRANCH  12  13
ATOM     13  C   LIG    1        1.709  -2.416  -0.908  0.00  0.00    -0.010 C 
ATOM     14  C   LIG    1        1.445  -3.778  -1.554  0.00  0.00    +0.040 C 
ATOM     15  C   LIG    1        3.097  -2.417  -0.264  0.00  0.00    +0.020 C 
ENDBRANCH  12  13
ENDBRANCH   9  12
ENDBRANCH   1   9
TORSDOF 5
ENDMDL
MODEL      236
REMARK  Name = ZINC001172402875
REMARK                            x       y       z     vdW  Elec       q    Type
REMARK                         _______ _______ _______ _____ _____    ______ ____
ROOT
ATOM      1  N   LIG    1       -2.352  -0.459  -1.143  0.00  0.00    -0.370 N 
ATOM      2  C   LIG    1       -3.543  -1.316  -1.200  0.00  0.00    +0.240 C 
ATOM      3  C   LIG    1       -4.163  -1.241  -2.596  0.00  0.00    +0.060 C 
ATOM      4  C   LIG    1       -4.560   0.208  -2.896  0.00  0.00    +0.030 C 
ATOM      5  C   LIG    1       -3.324   1.103  -2.761  0.00  0.00    +0.060 C 
ATOM      6  C   LIG    1       -2.737   0.941  -1.357  0.00  0.00    +0.150 C 
ATOM      7  C   LIG    1       -3.782   1.349  -0.317  0.00  0.00    +0.070 C 
ATOM      8  H   LIG    1       -1.701  -0.742  -1.860  0.00  0.00    +0.420 HD
ENDROOT
BRANCH   1   9
ATOM      9  C   LIG    1       -1.716  -0.595   0.175  0.00  0.00    +0.160 C 
BRANCH   9  11
ATOM     10  C   LIG    1       -0.521   1.597   0.276  0.00  0.00    +0.040 C 
ATOM     11  C   LIG    1       -0.344   0.082   0.151  0.00  0.00    +0.050 C 
ENDBRANCH   9  11
BRANCH   9  12
ATOM     12  C   LIG    1       -1.547  -2.078   0.509  0.00  0.00    +0.040 C 
BRANCH  12  13
ATOM     13  C   LIG    1       -0.919  -2.219   1.897  0.00  0.00    -0.010 C 
ATOM     14  C   LIG    1       -0.671  -3.699   2.197  0.00  0.00    +0.040 C 
ATOM     15  C   LIG    1       -1.867  -1.637   2.948  0.00  0.00    +0.020 C 
ENDBRANCH  12  13
ENDBRANCH   9  12
ENDBRANCH   1   9
TORSDOF 4
ENDMDL
MODEL      237
REMARK  Name = ZINC001172402877
REMARK                            x       y       z     vdW  Elec       q    Type
REMARK                         _______ _______ _______ _____ _____    ______ ____
ROOT
ATOM      1  N   LIG    1       -2.394  -0.145  -1.636  0.00  0.00    -0.380 N 
ATOM      2  C   LIG    1       -1.540  -0.677  -2.705  0.00  0.00    +0.240 C 
ATOM      3  C   LIG    1       -2.232  -0.489  -4.056  0.00  0.00    +0.060 C 
ATOM      4  C   LIG    1       -3.568  -1.238  -4.048  0.00  0.00    +0.030 C 
ATOM      5  C   LIG    1       -4.421  -0.727  -2.883  0.00  0.00    +0.060 C 
ATOM      6  C   LIG    1       -3.647  -0.908  -1.575  0.00  0.00    +0.160 C 
ATOM      7  C   LIG    1       -4.494  -0.399  -0.407  0.00  0.00    +0.080 C 
ATOM      8  H   LIG    1       -2.600   0.825  -1.822  0.00  0.00    +0.420 HD
ENDROOT
BRANCH   1   9
ATOM      9  C   LIG    1       -1.692  -0.257  -0.350  0.00  0.00    +0.150 C 
BRANCH   9  11
ATOM     10  C   LIG    1       -0.925   2.115  -0.512  0.00  0.00    +0.040 C 
ATOM     11  C   LIG    1       -0.470   0.663  -0.354  0.00  0.00    +0.050 C 
ENDBRANCH   9  11
BRANCH   9  12
ATOM     12  C   LIG    1       -1.241  -1.704  -0.139  0.00  0.00    +0.040 C 
BRANCH  12  13
ATOM     13  C   LIG    1       -0.655  -1.855   1.266  0.00  0.00    -0.010 C 
ATOM     14  C   LIG    1       -0.060  -3.256   1.422  0.00  0.00    +0.040 C 
ATOM     15  C   LIG    1       -1.760  -1.652   2.305  0.00  0.00    +0.020 C 
ENDBRANCH  12  13
ENDBRANCH   9  12
ENDBRANCH   1   9
TORSDOF 4
ENDMDL
MODEL      238
REMARK  Name = ZINC001172397954
REMARK                            x       y       z     vdW  Elec       q    Type
REMARK                         _______ _______ _______ _____ _____    ______ ____
ROOT
ATOM      1  C   LIG    1       -1.749  -0.093  -0.200  0.00  0.00    +0.150 C 
ENDROOT
BRANCH   1   3
ATOM      2  C   LIG    1       -1.814   2.313  -0.871  0.00  0.00    +0.040 C 
ATOM      3  C   LIG    1       -0.898   1.130  -0.549  0.00  0.00    +0.050 C 
ENDBRANCH   1   3
BRANCH   1   4
ATOM      4  N   LIG    1       -2.561  -0.473  -1.363  0.00  0.00    -0.380 N 
ATOM      5  H   LIG    1       -3.080   0.329  -1.687  0.00  0.00    +0.420 HD
BRANCH   4   6
ATOM      6  C   LIG    1       -3.495  -1.540  -0.980  0.00  0.00    +0.160 C 
ATOM      7  C   LIG    1       -4.357  -1.920  -2.186  0.00  0.00    +0.080 C 
ATOM      8  C   LIG    1       -4.395  -1.047   0.154  0.00  0.00    +0.080 C 
ENDBRANCH   4   6
BRANCH   4   9
ATOM      9  C   LIG    1       -1.682  -0.954  -2.438  0.00  0.00    +0.240 C 
ATOM     10  C   LIG    1       -2.353  -0.713  -3.791  0.00  0.00    +0.070 C 
ENDBRANCH   4   9
ENDBRANCH   1   4
BRANCH   1  11
ATOM     11  C   LIG    1       -0.834  -1.257   0.186  0.00  0.00    +0.040 C 
BRANCH  11  12
ATOM     12  C   LIG    1       -0.089  -0.914   1.478  0.00  0.00    -0.010 C 
ATOM     13  C   LIG    1        0.938  -2.007   1.780  0.00  0.00    +0.040 C 
ATOM     14  C   LIG    1       -1.089  -0.821   2.633  0.00  0.00    +0.020 C 
ENDBRANCH  11  12
ENDBRANCH   1  11
TORSDOF 6
ENDMDL
MODEL      239
REMARK  Name = ZINC000685852690
REMARK                            x       y       z     vdW  Elec       q    Type
REMARK                         _______ _______ _______ _____ _____    ______ ____
ROOT
ATOM      1  N   LIG    1        0.856  -2.129   3.507  0.00  0.00    -0.380 N 
ATOM      2  C   LIG    1        1.833  -2.614   4.489  0.00  0.00    +0.310 C 
ATOM      3  H   LIG    1       -0.051  -2.522   3.711  0.00  0.00    +0.420 HD
ENDROOT
BRANCH   1   4
ATOM      4  C   LIG    1        1.273  -2.536   2.158  0.00  0.00    +0.160 C 
ATOM      5  C   LIG    1        2.680  -2.005   1.877  0.00  0.00    +0.090 C 
BRANCH   4   6
ATOM      6  C   LIG    1        1.276  -4.064   2.066  0.00  0.00    +0.050 C 
BRANCH   6   7
ATOM      7  C   LIG    1       -0.146  -4.590   2.266  0.00  0.00    -0.000 C 
BRANCH   7   9
ATOM      8  C   LIG    1       -1.588  -6.630   2.248  0.00  0.00    +0.010 C 
ATOM      9  C   LIG    1       -0.166  -6.104   2.048  0.00  0.00    +0.020 C 
ENDBRANCH   7   9
ENDBRANCH   6   7
ENDBRANCH   4   6
ENDBRANCH   1   4
BRANCH   1  10
ATOM     10  C   LIG    1        0.780  -0.663   3.574  0.00  0.00    +0.270 C 
BRANCH  10  11
ATOM     11  C   LIG    1        0.242  -0.242   4.943  0.00  0.00    -0.120 C 
ATOM     12  C   LIG    1        1.337  -0.075   6.010  0.00  0.00    +0.040 C 
ATOM     13  C   LIG    1        1.455   1.387   5.547  0.00  0.00    +0.010 C 
ATOM     14  C   LIG    1       -0.941  -1.095   5.404  0.00  0.00    +0.050 C 
ATOM     15  C   LIG    1       -0.003   1.271   5.070  0.00  0.00    +0.060 C 
ENDBRANCH  10  11
ENDBRANCH   1  10
TORSDOF 6
ENDMDL
MODEL      240
REMARK  Name = ZINC000685852689
REMARK                            x       y       z     vdW  Elec       q    Type
REMARK                         _______ _______ _______ _____ _____    ______ ____
ROOT
ATOM      1  N   LIG    1        3.006  -2.261   2.377  0.00  0.00    -0.380 N 
ATOM      2  C   LIG    1        2.974  -0.795   2.454  0.00  0.00    +0.310 C 
ATOM      3  H   LIG    1        3.563  -2.545   1.585  0.00  0.00    +0.420 HD
ENDROOT
BRANCH   1   4
ATOM      4  C   LIG    1        1.638  -2.774   2.224  0.00  0.00    +0.160 C 
ATOM      5  C   LIG    1        0.825  -2.442   3.477  0.00  0.00    +0.090 C 
BRANCH   4   6
ATOM      6  C   LIG    1        1.681  -4.291   2.030  0.00  0.00    +0.050 C 
BRANCH   6   7
ATOM      7  C   LIG    1        2.406  -4.619   0.724  0.00  0.00    +0.000 C 
BRANCH   7   9
ATOM      8  C   LIG    1        3.239  -6.464  -0.740  0.00  0.00    +0.010 C 
ATOM      9  C   LIG    1        2.514  -6.137   0.567  0.00  0.00    +0.020 C 
ENDBRANCH   7   9
ENDBRANCH   6   7
ENDBRANCH   4   6
ENDBRANCH   1   4
BRANCH   1  10
ATOM     10  C   LIG    1        3.597  -2.802   3.609  0.00  0.00    +0.270 C 
BRANCH  10  11
ATOM     11  C   LIG    1        5.053  -2.348   3.719  0.00  0.00    -0.120 C 
ATOM     12  C   LIG    1        5.223  -0.984   4.410  0.00  0.00    +0.030 C 
ATOM     13  C   LIG    1        5.307  -1.755   5.737  0.00  0.00    +0.010 C 
ATOM     14  C   LIG    1        5.814  -2.466   2.397  0.00  0.00    +0.050 C 
ATOM     15  C   LIG    1        5.801  -2.958   4.916  0.00  0.00    +0.060 C 
ENDBRANCH  10  11
ENDBRANCH   1  10
TORSDOF 6
ENDMDL
MODEL      241
REMARK  Name = ZINC001172400534
REMARK                            x       y       z     vdW  Elec       q    Type
REMARK                         _______ _______ _______ _____ _____    ______ ____
ROOT
ATOM      1  N   LIG    1       -0.202   0.023  -2.430  0.00  0.00    -0.380 N 
ATOM      2  C   LIG    1        0.608  -0.201  -3.633  0.00  0.00    +0.250 C 
ATOM      3  C   LIG    1       -0.064   0.464  -4.837  0.00  0.00    +0.050 C 
ATOM      4  C   LIG    1       -1.456  -0.142  -5.037  0.00  0.00    +0.040 C 
ATOM      5  C   LIG    1       -2.267   0.032  -3.750  0.00  0.00    +0.010 C 
ATOM      6  C   LIG    1       -2.461   1.523  -3.466  0.00  0.00    +0.040 C 
ATOM      7  C   LIG    1       -1.513  -0.618  -2.588  0.00  0.00    +0.250 C 
ATOM      8  H   LIG    1       -0.329   1.015  -2.291  0.00  0.00    +0.420 HD
ENDROOT
BRANCH   1   9
ATOM      9  C   LIG    1        0.485  -0.550  -1.265  0.00  0.00    +0.160 C 
BRANCH   9  11
ATOM     10  C   LIG    1       -0.240   1.343   0.197  0.00  0.00    +0.030 C 
ATOM     11  C   LIG    1       -0.275  -0.176   0.009  0.00  0.00    +0.050 C 
ENDBRANCH   9  11
BRANCH   9  12
ATOM     12  C   LIG    1        0.535  -2.073  -1.400  0.00  0.00    +0.040 C 
BRANCH  12  13
ATOM     13  C   LIG    1        1.371  -2.659  -0.261  0.00  0.00    -0.010 C 
ATOM     14  C   LIG    1        2.823  -2.196  -0.404  0.00  0.00    +0.020 C 
ATOM     15  C   LIG    1        1.315  -4.187  -0.320  0.00  0.00    +0.040 C 
ENDBRANCH  12  13
ENDBRANCH   9  12
ENDBRANCH   1   9
TORSDOF 4
ENDMDL
MODEL      242
REMARK  Name = ZINC001172405488
REMARK                            x       y       z     vdW  Elec       q    Type
REMARK                         _______ _______ _______ _____ _____    ______ ____
ROOT
ATOM      1  N   LIG    1        2.083  -0.307  -1.302  0.00  0.00    -0.390 N 
ATOM      2  C   LIG    1        2.659  -0.968  -0.111  0.00  0.00    +0.250 C 
ATOM      3  C   LIG    1        4.079  -1.427  -0.491  0.00  0.00    +0.060 C 
ATOM      4  C   LIG    1        4.254  -1.014  -1.971  0.00  0.00    +0.000 C 
ATOM      5  C   LIG    1        2.792  -0.887  -2.471  0.00  0.00    +0.270 C 
ATOM      6  H   LIG    1        2.241   0.688  -1.258  0.00  0.00    +0.420 HD
ENDROOT
BRANCH   4   7
ATOM      7  C   LIG    1        5.005  -2.096  -2.750  0.00  0.00    +0.030 C 
ATOM      8  C   LIG    1        6.441  -2.193  -2.233  0.00  0.00    +0.030 C 
ENDBRANCH   4   7
BRANCH   1   9
ATOM      9  C   LIG    1        0.644  -0.590  -1.391  0.00  0.00    +0.160 C 
BRANCH   9  11
ATOM     10  C   LIG    1        0.053   1.559  -0.263  0.00  0.00    +0.030 C 
ATOM     11  C   LIG    1       -0.074   0.036  -0.194  0.00  0.00    +0.050 C 
ENDBRANCH   9  11
BRANCH   9  12
ATOM     12  C   LIG    1        0.420  -2.103  -1.387  0.00  0.00    +0.040 C 
BRANCH  12  13
ATOM     13  C   LIG    1       -1.060  -2.400  -1.634  0.00  0.00    -0.010 C 
ATOM     14  C   LIG    1       -1.310  -3.902  -1.487  0.00  0.00    +0.040 C 
ATOM     15  C   LIG    1       -1.440  -1.956  -3.048  0.00  0.00    +0.020 C 
ENDBRANCH  12  13
ENDBRANCH   9  12
ENDBRANCH   1   9
TORSDOF 5
ENDMDL
MODEL      243
REMARK  Name = ZINC001172399917
REMARK                            x       y       z     vdW  Elec       q    Type
REMARK                         _______ _______ _______ _____ _____    ______ ____
ROOT
ATOM      1  N   LIG    1       -1.262  -2.096  -0.035  0.00  0.00    -0.380 N 
ATOM      2  H   LIG    1       -0.808  -2.806   0.519  0.00  0.00    +0.420 HD
ENDROOT
BRANCH   1   3
ATOM      3  C   LIG    1       -1.020  -0.777   0.565  0.00  0.00    +0.240 C 
ATOM      4  C   LIG    1       -1.437  -0.802   2.037  0.00  0.00    +0.080 C 
ENDBRANCH   1   3
BRANCH   1   5
ATOM      5  C   LIG    1       -0.722  -2.119  -1.401  0.00  0.00    +0.250 C 
BRANCH   5   7
ATOM      6  C   LIG    1        1.366  -2.036  -2.770  0.00  0.00    +0.060 C 
ATOM      7  C   LIG    1        0.803  -2.011  -1.347  0.00  0.00    +0.020 C 
ENDBRANCH   5   7
ENDBRANCH   1   5
BRANCH   1   8
ATOM      8  C   LIG    1       -2.707  -2.357  -0.076  0.00  0.00    +0.160 C 
BRANCH   8   9
ATOM      9  C   LIG    1       -2.955  -3.865  -0.009  0.00  0.00    +0.050 C 
ATOM     10  C   LIG    1       -2.507  -4.396   1.354  0.00  0.00    +0.030 C 
ENDBRANCH   8   9
BRANCH   8  11
ATOM     11  C   LIG    1       -3.290  -1.802  -1.377  0.00  0.00    +0.060 C 
BRANCH  11  12
ATOM     12  C   LIG    1       -3.193  -0.275  -1.368  0.00  0.00    -0.040 C 
ATOM     13  C   LIG    1       -4.036   0.283  -0.219  0.00  0.00    +0.020 C 
ATOM     14  C   LIG    1       -3.713   0.277  -2.697  0.00  0.00    +0.050 C 
ENDBRANCH  11  12
ENDBRANCH   8  11
ENDBRANCH   1   8
TORSDOF 7
ENDMDL
MODEL      244
REMARK  Name = ZINC001172402248
REMARK                            x       y       z     vdW  Elec       q    Type
REMARK                         _______ _______ _______ _____ _____    ______ ____
ROOT
ATOM      1  N   LIG    1        1.637  -4.001   2.712  0.00  0.00    -0.380 N 
ATOM      2  C   LIG    1        0.523  -4.854   2.276  0.00  0.00    +0.320 C 
ATOM      3  H   LIG    1        1.291  -3.076   2.920  0.00  0.00    +0.420 HD
ENDROOT
BRANCH   1   4
ATOM      4  C   LIG    1        2.640  -3.920   1.642  0.00  0.00    +0.250 C 
BRANCH   4   5
ATOM      5  C   LIG    1        2.045  -3.184   0.440  0.00  0.00    +0.030 C 
BRANCH   5   6
ATOM      6  C   LIG    1        3.090  -3.100  -0.675  0.00  0.00    +0.020 C 
BRANCH   6   8
ATOM      7  C   LIG    1        3.539  -2.279  -2.991  0.00  0.00    +0.020 C 
ATOM      8  C   LIG    1        2.495  -2.364  -1.877  0.00  0.00    +0.010 C 
ENDBRANCH   6   8
ENDBRANCH   5   6
ENDBRANCH   4   5
ENDBRANCH   1   4
BRANCH   1   9
ATOM      9  C   LIG    1        2.251  -4.575   3.917  0.00  0.00    +0.160 C 
BRANCH   9  10
ATOM     10  C   LIG    1        1.235  -4.566   5.061  0.00  0.00    +0.050 C 
ATOM     11  C   LIG    1        0.848  -3.123   5.388  0.00  0.00    +0.020 C 
ENDBRANCH   9  10
BRANCH   9  12
ATOM     12  C   LIG    1        2.684  -6.015   3.631  0.00  0.00    +0.040 C 
BRANCH  12  13
ATOM     13  C   LIG    1        3.473  -6.556   4.825  0.00  0.00    -0.010 C 
ATOM     14  C   LIG    1        4.784  -5.779   4.965  0.00  0.00    +0.020 C 
ATOM     15  C   LIG    1        3.780  -8.038   4.603  0.00  0.00    +0.040 C 
ENDBRANCH  12  13
ENDBRANCH   9  12
ENDBRANCH   1   9
TORSDOF 8
ENDMDL
MODEL      245
REMARK  Name = ZINC001172401772
REMARK                            x       y       z     vdW  Elec       q    Type
REMARK                         _______ _______ _______ _____ _____    ______ ____
ROOT
ATOM      1  N   LIG    1        0.686  -3.053   2.588  0.00  0.00    -0.380 N 
ATOM      2  C   LIG    1       -0.558  -2.928   1.818  0.00  0.00    +0.310 C 
ATOM      3  H   LIG    1        0.486  -2.941   3.571  0.00  0.00    +0.420 HD
ENDROOT
BRANCH   1   4
ATOM      4  C   LIG    1        1.634  -2.016   2.160  0.00  0.00    +0.250 C 
BRANCH   4   5
ATOM      5  C   LIG    1        1.093  -0.638   2.549  0.00  0.00    +0.020 C 
BRANCH   5   7
ATOM      6  C   LIG    1        1.540   1.819   2.492  0.00  0.00    +0.030 C 
ATOM      7  C   LIG    1        2.080   0.442   2.103  0.00  0.00    +0.020 C 
ENDBRANCH   5   7
ENDBRANCH   4   5
ENDBRANCH   1   4
BRANCH   1   8
ATOM      8  C   LIG    1        1.274  -4.379   2.357  0.00  0.00    +0.160 C 
BRANCH   8   9
ATOM      9  C   LIG    1        2.131  -4.343   1.090  0.00  0.00    +0.050 C 
ATOM     10  C   LIG    1        1.234  -4.106  -0.126  0.00  0.00    +0.030 C 
ENDBRANCH   8   9
BRANCH   8  11
ATOM     11  C   LIG    1        2.147  -4.766   3.552  0.00  0.00    +0.060 C 
BRANCH  11  12
ATOM     12  C   LIG    1        1.277  -4.870   4.807  0.00  0.00    -0.040 C 
ATOM     13  C   LIG    1        2.164  -5.155   6.020  0.00  0.00    +0.050 C 
ATOM     14  C   LIG    1        0.268  -6.006   4.634  0.00  0.00    +0.030 C 
ENDBRANCH  11  12
ENDBRANCH   8  11
ENDBRANCH   1   8
TORSDOF 7
ENDMDL
MODEL      246
REMARK  Name = ZINC001172402325
REMARK                            x       y       z     vdW  Elec       q    Type
REMARK                         _______ _______ _______ _____ _____    ______ ____
ROOT
ATOM      1  N   LIG    1        1.842  -2.813   2.660  0.00  0.00    -0.380 N 
ATOM      2  H   LIG    1        1.445  -2.764   3.587  0.00  0.00    +0.420 HD
ENDROOT
BRANCH   1   3
ATOM      3  C   LIG    1        0.892  -2.249   1.691  0.00  0.00    +0.240 C 
ATOM      4  C   LIG    1       -0.461  -2.948   1.837  0.00  0.00    +0.080 C 
ENDBRANCH   1   3
BRANCH   1   5
ATOM      5  C   LIG    1        3.094  -2.046   2.622  0.00  0.00    +0.240 C 
BRANCH   5   6
ATOM      6  C   LIG    1        2.838  -0.627   3.133  0.00  0.00    +0.030 C 
BRANCH   6   8
ATOM      7  C   LIG    1        3.886   1.592   3.605  0.00  0.00    +0.030 C 
ATOM      8  C   LIG    1        4.142   0.172   3.094  0.00  0.00    +0.020 C 
ENDBRANCH   6   8
ENDBRANCH   5   6
ENDBRANCH   1   5
BRANCH   1   9
ATOM      9  C   LIG    1        2.116  -4.215   2.318  0.00  0.00    +0.160 C 
BRANCH   9  10
ATOM     10  C   LIG    1        3.196  -4.274   1.236  0.00  0.00    +0.050 C 
ATOM     11  C   LIG    1        2.652  -3.675  -0.062  0.00  0.00    +0.030 C 
ENDBRANCH   9  10
BRANCH   9  12
ATOM     12  C   LIG    1        2.601  -4.959   3.564  0.00  0.00    +0.040 C 
BRANCH  12  13
ATOM     13  C   LIG    1        2.736  -6.450   3.248  0.00  0.00    -0.010 C 
ATOM     14  C   LIG    1        1.352  -7.040   2.971  0.00  0.00    +0.020 C 
ATOM     15  C   LIG    1        3.368  -7.169   4.441  0.00  0.00    +0.040 C 
ENDBRANCH  12  13
ENDBRANCH   9  12
ENDBRANCH   1   9
TORSDOF 8
ENDMDL
MODEL      247
REMARK  Name = ZINC001207257513
REMARK                            x       y       z     vdW  Elec       q    Type
REMARK                         _______ _______ _______ _____ _____    ______ ____
ROOT
ATOM      1  C   LIG    1       -1.881   1.417  -1.203  0.00  0.00    +0.240 C 
ENDROOT
BRANCH   1   2
ATOM      2  N   LIG    1       -2.053  -0.037  -1.093  0.00  0.00    -0.380 N 
ATOM      3  C   LIG    1       -3.486  -0.360  -1.060  0.00  0.00    +0.320 C 
ATOM      4  H   LIG    1       -1.625  -0.487  -1.888  0.00  0.00    +0.420 HD
BRANCH   2   5
ATOM      5  C   LIG    1       -1.416  -0.514   0.142  0.00  0.00    +0.160 C 
ATOM      6  C   LIG    1       -2.150   0.066   1.352  0.00  0.00    +0.080 C 
BRANCH   5   8
ATOM      7  C   LIG    1       -0.638  -2.624  -0.948  0.00  0.00    +0.020 C 
ATOM      8  C   LIG    1       -1.479  -2.042   0.191  0.00  0.00    +0.050 C 
ENDBRANCH   5   8
ENDBRANCH   2   5
ENDBRANCH   1   2
BRANCH   1   9
ATOM      9  C   LIG    1       -2.412   1.893  -2.557  0.00  0.00    +0.040 C 
BRANCH   9  10
ATOM     10  C   LIG    1       -2.232   3.408  -2.671  0.00  0.00    +0.000 C 
ATOM     11  C   LIG    1       -0.740   3.746  -2.680  0.00  0.00    +0.010 C 
ATOM     12  C   LIG    1       -0.561   5.261  -2.794  0.00  0.00    +0.010 C 
ATOM     13  C   LIG    1       -1.203   5.754  -4.092  0.00  0.00    +0.010 C 
ATOM     14  C   LIG    1       -2.695   5.416  -4.084  0.00  0.00    +0.010 C 
ATOM     15  C   LIG    1       -2.874   3.901  -3.969  0.00  0.00    +0.030 C 
ENDBRANCH   9  10
ENDBRANCH   1   9
TORSDOF 5
ENDMDL
MODEL      248
REMARK  Name = ZINC001172401771
REMARK                            x       y       z     vdW  Elec       q    Type
REMARK                         _______ _______ _______ _____ _____    ______ ____
ROOT
ATOM      1  N   LIG    1        1.314  -2.799   2.012  0.00  0.00    -0.380 N 
ATOM      2  C   LIG    1        0.646  -2.286   0.809  0.00  0.00    +0.310 C 
ATOM      3  H   LIG    1        0.855  -2.434   2.834  0.00  0.00    +0.420 HD
ENDROOT
BRANCH   1   4
ATOM      4  C   LIG    1        2.721  -2.377   2.009  0.00  0.00    +0.240 C 
BRANCH   4   5
ATOM      5  C   LIG    1        2.797  -0.855   2.144  0.00  0.00    +0.030 C 
BRANCH   5   7
ATOM      6  C   LIG    1        4.338   1.108   2.275  0.00  0.00    +0.030 C 
ATOM      7  C   LIG    1        4.262  -0.414   2.140  0.00  0.00    +0.020 C 
ENDBRANCH   5   7
ENDBRANCH   4   5
ENDBRANCH   1   4
BRANCH   1   8
ATOM      8  C   LIG    1        1.244  -4.266   2.023  0.00  0.00    +0.160 C 
BRANCH   8   9
ATOM      9  C   LIG    1        1.796  -4.794   3.349  0.00  0.00    +0.050 C 
ATOM     10  C   LIG    1        0.896  -4.332   4.496  0.00  0.00    +0.030 C 
ENDBRANCH   8   9
BRANCH   8  11
ATOM     11  C   LIG    1        2.074  -4.825   0.866  0.00  0.00    +0.040 C 
BRANCH  11  12
ATOM     12  C   LIG    1        1.905  -6.345   0.805  0.00  0.00    -0.010 C 
ATOM     13  C   LIG    1        2.829  -6.917  -0.273  0.00  0.00    +0.040 C 
ATOM     14  C   LIG    1        0.453  -6.684   0.464  0.00  0.00    +0.020 C 
ENDBRANCH  11  12
ENDBRANCH   8  11
ENDBRANCH   1   8
TORSDOF 7
ENDMDL
MODEL      249
REMARK  Name = ZINC001172400529
REMARK                            x       y       z     vdW  Elec       q    Type
REMARK                         _______ _______ _______ _____ _____    ______ ____
ROOT
ATOM      1  N   LIG    1       -0.203   0.024  -2.430  0.00  0.00    -0.380 N 
ATOM      2  C   LIG    1        0.607  -0.201  -3.633  0.00  0.00    +0.250 C 
ATOM      3  C   LIG    1       -0.064   0.466  -4.836  0.00  0.00    +0.050 C 
ATOM      4  C   LIG    1       -1.457  -0.140  -5.036  0.00  0.00    +0.040 C 
ATOM      5  C   LIG    1       -2.268   0.034  -3.749  0.00  0.00    -0.020 C 
ATOM      6  C   LIG    1       -3.634  -0.636  -3.912  0.00  0.00    +0.070 C 
ATOM      7  C   LIG    1       -1.514  -0.618  -2.587  0.00  0.00    +0.250 C 
ATOM      8  H   LIG    1       -0.329   1.015  -2.290  0.00  0.00    +0.420 HD
ENDROOT
BRANCH   1   9
ATOM      9  C   LIG    1        0.484  -0.550  -1.265  0.00  0.00    +0.160 C 
BRANCH   9  11
ATOM     10  C   LIG    1       -0.241   1.341   0.197  0.00  0.00    +0.030 C 
ATOM     11  C   LIG    1       -0.275  -0.177   0.010  0.00  0.00    +0.050 C 
ENDBRANCH   9  11
BRANCH   9  12
ATOM     12  C   LIG    1        0.534  -2.073  -1.401  0.00  0.00    +0.040 C 
BRANCH  12  13
ATOM     13  C   LIG    1        1.371  -2.660  -0.263  0.00  0.00    -0.010 C 
ATOM     14  C   LIG    1        2.822  -2.198  -0.405  0.00  0.00    +0.020 C 
ATOM     15  C   LIG    1        1.313  -4.188  -0.323  0.00  0.00    +0.040 C 
ENDBRANCH  12  13
ENDBRANCH   9  12
ENDBRANCH   1   9
TORSDOF 4
ENDMDL
MODEL      250
REMARK  Name = ZINC001207254882
REMARK                            x       y       z     vdW  Elec       q    Type
REMARK                         _______ _______ _______ _____ _____    ______ ____
ROOT
ATOM      1  C   LIG    1       -1.976  -0.038  -1.355  0.00  0.00    +0.240 C 
ENDROOT
BRANCH   1   2
ATOM      2  N   LIG    1       -1.637  -0.393   0.030  0.00  0.00    -0.380 N 
ATOM      3  H   LIG    1       -2.235   0.116   0.664  0.00  0.00    +0.420 HD
BRANCH   2   4
ATOM      4  C   LIG    1       -1.829  -1.836   0.227  0.00  0.00    +0.160 C 
ATOM      5  C   LIG    1       -3.289  -2.198  -0.049  0.00  0.00    +0.090 C 
ATOM      6  C   LIG    1       -1.475  -2.205   1.669  0.00  0.00    +0.090 C 
ENDBRANCH   2   4
BRANCH   2   8
ATOM      7  C   LIG    1        0.677  -0.876  -0.610  0.00  0.00    +0.070 C 
ATOM      8  C   LIG    1       -0.234  -0.044   0.295  0.00  0.00    +0.240 C 
ENDBRANCH   2   8
ENDBRANCH   1   2
BRANCH   1   9
ATOM      9  C   LIG    1       -1.881   1.479  -1.530  0.00  0.00    +0.040 C 
BRANCH   9  10
ATOM     10  C   LIG    1       -2.359   1.861  -2.933  0.00  0.00    +0.000 C 
ATOM     11  C   LIG    1       -3.846   1.529  -3.073  0.00  0.00    +0.010 C 
ATOM     12  C   LIG    1       -4.324   1.910  -4.476  0.00  0.00    +0.010 C 
ATOM     13  C   LIG    1       -4.113   3.409  -4.696  0.00  0.00    +0.010 C 
ATOM     14  C   LIG    1       -2.626   3.741  -4.556  0.00  0.00    +0.010 C 
ATOM     15  C   LIG    1       -2.148   3.360  -3.153  0.00  0.00    +0.030 C 
ENDBRANCH   9  10
ENDBRANCH   1   9
TORSDOF 5
ENDMDL
MODEL      251
REMARK  Name = ZINC001172407022
REMARK                            x       y       z     vdW  Elec       q    Type
REMARK                         _______ _______ _______ _____ _____    ______ ____
ROOT
ATOM      1  N   LIG    1        1.987  -0.102  -0.873  0.00  0.00    -0.380 N 
ATOM      2  C   LIG    1        2.249  -0.804   0.391  0.00  0.00    +0.320 C 
ATOM      3  H   LIG    1        2.337   0.842  -0.813  0.00  0.00    +0.420 HD
ENDROOT
BRANCH   1   4
ATOM      4  C   LIG    1        0.540  -0.074  -1.127  0.00  0.00    +0.160 C 
BRANCH   4   6
ATOM      5  C   LIG    1        0.559   2.407  -1.422  0.00  0.00    +0.040 C 
ATOM      6  C   LIG    1       -0.040   1.249  -0.622  0.00  0.00    +0.050 C 
ENDBRANCH   4   6
BRANCH   4   7
ATOM      7  C   LIG    1       -0.129  -1.238  -0.393  0.00  0.00    +0.060 C 
BRANCH   7   8
ATOM      8  C   LIG    1        0.237  -2.554  -1.083  0.00  0.00    -0.040 C 
ATOM      9  C   LIG    1       -0.284  -2.537  -2.521  0.00  0.00    +0.030 C 
ATOM     10  C   LIG    1       -0.398  -3.721  -0.324  0.00  0.00    +0.050 C 
ENDBRANCH   7   8
ENDBRANCH   4   7
ENDBRANCH   1   4
BRANCH   1  11
ATOM     11  C   LIG    1        2.663  -0.805  -1.972  0.00  0.00    +0.250 C 
BRANCH  11  12
ATOM     12  C   LIG    1        4.175  -0.603  -1.854  0.00  0.00    -0.030 C 
ATOM     13  C   LIG    1        4.868  -1.644  -0.959  0.00  0.00    +0.020 C 
ATOM     14  C   LIG    1        6.008  -1.655  -1.990  0.00  0.00    +0.030 C 
ATOM     15  C   LIG    1        4.970  -1.198  -3.028  0.00  0.00    +0.040 C 
ENDBRANCH  11  12
ENDBRANCH   1  11
TORSDOF 6
ENDMDL
MODEL      252
REMARK  Name = ZINC001207262712
REMARK                            x       y       z     vdW  Elec       q    Type
REMARK                         _______ _______ _______ _____ _____    ______ ____
ROOT
ATOM      1  C   LIG    1        0.690  -0.478  -1.207  0.00  0.00    +0.240 C 
ENDROOT
BRANCH   1   3
ATOM      2  C   LIG    1       -0.018   1.465   0.010  0.00  0.00    +0.320 C 
ATOM      3  N   LIG    1        0.002  -0.004   0.002  0.00  0.00    -0.380 N 
ATOM      4  H   LIG    1       -0.945  -0.353   0.009  0.00  0.00    +0.420 HD
BRANCH   3   5
ATOM      5  C   LIG    1        0.713  -0.491   1.192  0.00  0.00    +0.050 C 
ATOM      6  C   LIG    1        2.148   0.039   1.181  0.00  0.00    +0.080 C 
ATOM      7  C   LIG    1        0.733  -2.021   1.184  0.00  0.00    +0.090 C 
ATOM      8  C   LIG    1       -0.004   0.003   2.451  0.00  0.00    +0.080 C 
ENDBRANCH   3   5
ENDBRANCH   1   3
BRANCH   1   9
ATOM      9  C   LIG    1       -0.118  -0.077  -2.443  0.00  0.00    +0.040 C 
BRANCH   9  10
ATOM     10  C   LIG    1        0.598  -0.571  -3.702  0.00  0.00    +0.000 C 
ATOM     11  C   LIG    1        0.619  -2.100  -3.710  0.00  0.00    +0.010 C 
ATOM     12  C   LIG    1        1.335  -2.594  -4.969  0.00  0.00    +0.010 C 
ATOM     13  C   LIG    1        0.595  -2.087  -6.208  0.00  0.00    +0.010 C 
ATOM     14  C   LIG    1        0.575  -0.557  -6.200  0.00  0.00    +0.010 C 
ATOM     15  C   LIG    1       -0.142  -0.064  -4.941  0.00  0.00    +0.030 C 
ENDBRANCH   9  10
ENDBRANCH   1   9
TORSDOF 4
ENDMDL
MODEL      253
REMARK  Name = ZINC001172406434
REMARK                            x       y       z     vdW  Elec       q    Type
REMARK                         _______ _______ _______ _____ _____    ______ ____
ROOT
ATOM      1  N   LIG    1        0.845  -0.478  -1.890  0.00  0.00    -0.380 N 
ATOM      2  C   LIG    1        0.100  -0.999  -3.044  0.00  0.00    +0.320 C 
ATOM      3  H   LIG    1        1.479  -1.186  -1.552  0.00  0.00    +0.420 HD
ENDROOT
BRANCH   1   4
ATOM      4  C   LIG    1       -0.096  -0.114  -0.823  0.00  0.00    +0.160 C 
BRANCH   4   6
ATOM      5  C   LIG    1        1.286  -1.198   0.953  0.00  0.00    +0.030 C 
ATOM      6  C   LIG    1       -0.079  -1.192   0.262  0.00  0.00    +0.050 C 
ENDBRANCH   4   6
BRANCH   4   7
ATOM      7  C   LIG    1       -1.506   0.002  -1.405  0.00  0.00    +0.050 C 
BRANCH   7   8
ATOM      8  C   LIG    1       -1.763   1.447  -1.837  0.00  0.00    -0.030 C 
ATOM      9  C   LIG    1       -1.379   2.396  -0.700  0.00  0.00    +0.030 C 
ATOM     10  C   LIG    1       -3.246   1.624  -2.170  0.00  0.00    +0.040 C 
ENDBRANCH   7   8
ENDBRANCH   4   7
ENDBRANCH   1   4
BRANCH   1  11
ATOM     11  C   LIG    1        1.609   0.709  -2.296  0.00  0.00    +0.250 C 
BRANCH  11  12
ATOM     12  C   LIG    1        3.097   0.361  -2.361  0.00  0.00    -0.090 C 
ATOM     13  C   LIG    1        3.578  -0.084  -0.978  0.00  0.00    +0.050 C 
ATOM     14  C   LIG    1        3.891   1.591  -2.805  0.00  0.00    +0.070 C 
ATOM     15  C   LIG    1        3.312  -0.774  -3.364  0.00  0.00    +0.040 C 
ENDBRANCH  11  12
ENDBRANCH   1  11
TORSDOF 6
ENDMDL
MODEL      254
REMARK  Name = ZINC001172407592
REMARK                            x       y       z     vdW  Elec       q    Type
REMARK                         _______ _______ _______ _____ _____    ______ ____
ROOT
ATOM      1  N   LIG    1       -0.122   0.201  -2.448  0.00  0.00    -0.380 N 
ATOM      2  C   LIG    1        0.804  -0.016  -3.567  0.00  0.00    +0.310 C 
ATOM      3  H   LIG    1       -0.242   1.191  -2.297  0.00  0.00    +0.420 HD
ENDROOT
BRANCH   1   4
ATOM      4  C   LIG    1       -1.422  -0.408  -2.762  0.00  0.00    +0.160 C 
ATOM      5  C   LIG    1       -2.489   0.028  -1.728  0.00  0.00    +0.050 C 
ATOM      6  C   LIG    1       -3.816  -0.162  -2.504  0.00  0.00    +0.040 C 
ATOM      7  C   LIG    1       -3.479   0.284  -3.942  0.00  0.00    +0.030 C 
ATOM      8  C   LIG    1       -1.958   0.128  -4.106  0.00  0.00    +0.040 C 
ENDBRANCH   1   4
BRANCH   1   9
ATOM      9  C   LIG    1        0.425  -0.416  -1.232  0.00  0.00    +0.160 C 
BRANCH   9  11
ATOM     10  C   LIG    1        0.072   1.690   0.065  0.00  0.00    +0.030 C 
ATOM     11  C   LIG    1       -0.248   0.195  -0.002  0.00  0.00    +0.040 C 
ENDBRANCH   9  11
BRANCH   9  12
ATOM     12  C   LIG    1        0.162  -1.923  -1.262  0.00  0.00    +0.040 C 
BRANCH  12  13
ATOM     13  C   LIG    1        0.870  -2.588  -0.080  0.00  0.00    -0.010 C 
ATOM     14  C   LIG    1        2.385  -2.467  -0.259  0.00  0.00    +0.020 C 
ATOM     15  C   LIG    1        0.481  -4.066  -0.018  0.00  0.00    +0.040 C 
ENDBRANCH  12  13
ENDBRANCH   9  12
ENDBRANCH   1   9
TORSDOF 5
ENDMDL
MODEL      255
REMARK  Name = ZINC001172408044
REMARK                            x       y       z     vdW  Elec       q    Type
REMARK                         _______ _______ _______ _____ _____    ______ ____
ROOT
ATOM      1  N   LIG    1       -0.228  -0.348   2.546  0.00  0.00    -0.390 N 
ATOM      2  C   LIG    1       -1.497  -1.103   2.487  0.00  0.00    +0.240 C 
ATOM      3  C   LIG    1       -1.194  -2.443   3.204  0.00  0.00    +0.070 C 
ATOM      4  C   LIG    1       -0.250  -1.981   4.345  0.00  0.00    +0.070 C 
ATOM      5  C   LIG    1        0.562  -0.851   3.686  0.00  0.00    +0.160 C 
ATOM      6  H   LIG    1       -0.422   0.634   2.674  0.00  0.00    +0.420 HD
ENDROOT
BRANCH   5   7
ATOM      7  C   LIG    1        0.797   0.277   4.693  0.00  0.00    +0.060 C 
ATOM      8  C   LIG    1        1.714   1.333   4.072  0.00  0.00    +0.030 C 
ENDBRANCH   5   7
BRANCH   1   9
ATOM      9  C   LIG    1        0.524  -0.546   1.299  0.00  0.00    +0.160 C 
BRANCH   9  11
ATOM     10  C   LIG    1       -0.333   1.610   0.371  0.00  0.00    +0.040 C 
ATOM     11  C   LIG    1       -0.236   0.101   0.139  0.00  0.00    +0.050 C 
ENDBRANCH   9  11
BRANCH   9  12
ATOM     12  C   LIG    1        0.684  -2.044   1.032  0.00  0.00    +0.040 C 
BRANCH  12  13
ATOM     13  C   LIG    1        1.582  -2.251  -0.189  0.00  0.00    -0.010 C 
ATOM     14  C   LIG    1        1.626  -3.738  -0.544  0.00  0.00    +0.040 C 
ATOM     15  C   LIG    1        2.996  -1.760   0.128  0.00  0.00    +0.020 C 
ENDBRANCH  12  13
ENDBRANCH   9  12
ENDBRANCH   1   9
TORSDOF 5
ENDMDL
MODEL      256
REMARK  Name = ZINC001172406435
REMARK                            x       y       z     vdW  Elec       q    Type
REMARK                         _______ _______ _______ _____ _____    ______ ____
ROOT
ATOM      1  N   LIG    1       -0.247  -0.685  -2.166  0.00  0.00    -0.380 N 
ATOM      2  C   LIG    1       -0.097   0.710  -1.729  0.00  0.00    +0.320 C 
ATOM      3  H   LIG    1       -1.218  -0.871  -2.370  0.00  0.00    +0.420 HD
ENDROOT
BRANCH   1   4
ATOM      4  C   LIG    1        0.210  -1.584  -1.097  0.00  0.00    +0.160 C 
BRANCH   4   6
ATOM      5  C   LIG    1       -1.590  -3.241  -1.606  0.00  0.00    +0.030 C 
ATOM      6  C   LIG    1       -0.078  -3.034  -1.494  0.00  0.00    +0.050 C 
ENDBRANCH   4   6
BRANCH   4   7
ATOM      7  C   LIG    1        1.714  -1.402  -0.886  0.00  0.00    +0.040 C 
BRANCH   7   8
ATOM      8  C   LIG    1        2.162  -2.224   0.325  0.00  0.00    -0.010 C 
ATOM      9  C   LIG    1        1.517  -1.657   1.592  0.00  0.00    +0.020 C 
ATOM     10  C   LIG    1        3.685  -2.155   0.453  0.00  0.00    +0.040 C 
ENDBRANCH   7   8
ENDBRANCH   4   7
ENDBRANCH   1   4
BRANCH   1  11
ATOM     11  C   LIG    1        0.559  -0.909  -3.373  0.00  0.00    +0.250 C 
BRANCH  11  12
ATOM     12  C   LIG    1       -0.006  -0.077  -4.526  0.00  0.00    -0.080 C 
ATOM     13  C   LIG    1       -1.535  -0.110  -4.477  0.00  0.00    +0.030 C 
ATOM     14  C   LIG    1        0.474  -0.658  -5.857  0.00  0.00    +0.070 C 
ATOM     15  C   LIG    1        0.477   1.369  -4.396  0.00  0.00    +0.040 C 
ENDBRANCH  11  12
ENDBRANCH   1  11
TORSDOF 6
ENDMDL
MODEL      257
REMARK  Name = ZINC001172407023
REMARK                            x       y       z     vdW  Elec       q    Type
REMARK                         _______ _______ _______ _____ _____    ______ ____
ROOT
ATOM      1  N   LIG    1       -0.197   0.026  -2.243  0.00  0.00    -0.380 N 
ATOM      2  C   LIG    1        0.664  -0.356  -3.370  0.00  0.00    +0.320 C 
ATOM      3  H   LIG    1       -0.289   1.031  -2.216  0.00  0.00    +0.420 HD
ENDROOT
BRANCH   1   4
ATOM      4  C   LIG    1        0.403  -0.444  -0.987  0.00  0.00    +0.160 C 
BRANCH   4   6
ATOM      5  C   LIG    1       -0.335   1.615   0.220  0.00  0.00    +0.030 C 
ATOM      6  C   LIG    1       -0.409   0.087   0.196  0.00  0.00    +0.050 C 
ENDBRANCH   4   6
BRANCH   4   7
ATOM      7  C   LIG    1        0.400  -1.974  -0.962  0.00  0.00    +0.040 C 
BRANCH   7   8
ATOM      8  C   LIG    1        1.131  -2.465   0.289  0.00  0.00    -0.010 C 
ATOM      9  C   LIG    1        2.609  -2.084   0.199  0.00  0.00    +0.020 C 
ATOM     10  C   LIG    1        1.002  -3.987   0.391  0.00  0.00    +0.040 C 
ENDBRANCH   7   8
ENDBRANCH   4   7
ENDBRANCH   1   4
BRANCH   1  11
ATOM     11  C   LIG    1       -1.523  -0.583  -2.410  0.00  0.00    +0.250 C 
BRANCH  11  12
ATOM     12  C   LIG    1       -2.205   0.013  -3.643  0.00  0.00    -0.030 C 
ATOM     13  C   LIG    1       -1.866  -0.722  -4.951  0.00  0.00    +0.020 C 
ATOM     14  C   LIG    1       -3.341  -0.539  -5.344  0.00  0.00    +0.030 C 
ATOM     15  C   LIG    1       -3.652  -0.470  -3.840  0.00  0.00    +0.040 C 
ENDBRANCH  11  12
ENDBRANCH   1  11
TORSDOF 6
ENDMDL
MODEL      258
REMARK  Name = ZINC001172408439
REMARK                            x       y       z     vdW  Elec       q    Type
REMARK                         _______ _______ _______ _____ _____    ______ ____
ROOT
ATOM      1  C   LIG    1       -2.541  -0.114  -0.532  0.00  0.00    +0.150 C 
ENDROOT
BRANCH   1   2
ATOM      2  N   LIG    1       -3.213   0.093  -1.822  0.00  0.00    -0.380 N 
ATOM      3  C   LIG    1       -2.235  -0.044  -2.910  0.00  0.00    +0.310 C 
ATOM      4  H   LIG    1       -3.616   1.017  -1.847  0.00  0.00    +0.420 HD
BRANCH   2   5
ATOM      5  C   LIG    1       -4.274  -0.910  -1.988  0.00  0.00    +0.050 C 
ATOM      6  C   LIG    1       -3.684  -2.311  -1.812  0.00  0.00    +0.080 C 
ATOM      7  C   LIG    1       -4.879  -0.784  -3.388  0.00  0.00    +0.080 C 
ATOM      8  C   LIG    1       -5.363  -0.679  -0.939  0.00  0.00    +0.090 C 
ENDBRANCH   2   5
ENDBRANCH   1   2
BRANCH   1  10
ATOM      9  C   LIG    1       -3.117   2.182   0.268  0.00  0.00    +0.030 C 
ATOM     10  C   LIG    1       -1.970   1.215  -0.035  0.00  0.00    +0.050 C 
ENDBRANCH   1  10
BRANCH   1  11
ATOM     11  C   LIG    1       -1.405  -1.125  -0.704  0.00  0.00    +0.030 C 
BRANCH  11  12
ATOM     12  C   LIG    1       -0.804  -1.454   0.663  0.00  0.00    -0.010 C 
ATOM     13  C   LIG    1        0.411  -2.366   0.480  0.00  0.00    +0.040 C 
ATOM     14  C   LIG    1       -1.850  -2.165   1.524  0.00  0.00    +0.020 C 
ENDBRANCH  11  12
ENDBRANCH   1  11
TORSDOF 5
ENDMDL
MODEL      259
REMARK  Name = ZINC001172408440
REMARK                            x       y       z     vdW  Elec       q    Type
REMARK                         _______ _______ _______ _____ _____    ______ ____
ROOT
ATOM      1  C   LIG    1       -1.784  -0.339  -0.106  0.00  0.00    +0.170 C 
ENDROOT
BRANCH   1   2
ATOM      2  N   LIG    1       -1.599   0.258   1.223  0.00  0.00    -0.370 N 
ATOM      3  C   LIG    1       -2.855   0.168   1.979  0.00  0.00    +0.320 C 
ATOM      4  H   LIG    1       -1.336   1.227   1.122  0.00  0.00    +0.420 HD
BRANCH   2   5
ATOM      5  C   LIG    1       -0.542  -0.465   1.942  0.00  0.00    +0.060 C 
ATOM      6  C   LIG    1       -0.703  -1.969   1.708  0.00  0.00    +0.090 C 
ATOM      7  C   LIG    1       -0.648  -0.168   3.439  0.00  0.00    +0.080 C 
ATOM      8  C   LIG    1        0.826  -0.013   1.427  0.00  0.00    +0.080 C 
ENDBRANCH   2   5
ENDBRANCH   1   2
BRANCH   1  10
ATOM      9  C   LIG    1        0.321   0.348  -1.262  0.00  0.00    +0.040 C 
ATOM     10  C   LIG    1       -0.435  -0.826  -0.639  0.00  0.00    +0.050 C 
ENDBRANCH   1  10
BRANCH   1  11
ATOM     11  C   LIG    1       -2.749  -1.522  -0.004  0.00  0.00    +0.050 C 
BRANCH  11  12
ATOM     12  C   LIG    1       -4.187  -1.022  -0.154  0.00  0.00    -0.040 C 
ATOM     13  C   LIG    1       -5.156  -2.193   0.024  0.00  0.00    +0.040 C 
ATOM     14  C   LIG    1       -4.373  -0.414  -1.546  0.00  0.00    +0.030 C 
ENDBRANCH  11  12
ENDBRANCH   1  11
TORSDOF 5
ENDMDL
MODEL      260
REMARK  Name = ZINC001172407589
REMARK                            x       y       z     vdW  Elec       q    Type
REMARK                         _______ _______ _______ _____ _____    ______ ____
ROOT
ATOM      1  N   LIG    1        2.057  -0.072  -1.215  0.00  0.00    -0.380 N 
ATOM      2  C   LIG    1        2.458  -0.680   0.060  0.00  0.00    +0.310 C 
ATOM      3  H   LIG    1        2.255   0.917  -1.193  0.00  0.00    +0.420 HD
ENDROOT
BRANCH   1   4
ATOM      4  C   LIG    1        2.806  -0.697  -2.313  0.00  0.00    +0.150 C 
ATOM      5  C   LIG    1        2.539   0.048  -3.645  0.00  0.00    +0.040 C 
ATOM      6  C   LIG    1        3.789  -0.304  -4.489  0.00  0.00    +0.050 C 
ATOM      7  C   LIG    1        4.949  -0.290  -3.473  0.00  0.00    +0.030 C 
ATOM      8  C   LIG    1        4.324  -0.540  -2.089  0.00  0.00    +0.030 C 
ENDBRANCH   1   4
BRANCH   1   9
ATOM      9  C   LIG    1        0.617  -0.278  -1.425  0.00  0.00    +0.160 C 
BRANCH   9  11
ATOM     10  C   LIG    1        0.186   2.163  -1.732  0.00  0.00    +0.030 C 
ATOM     11  C   LIG    1       -0.154   0.931  -0.892  0.00  0.00    +0.050 C 
ENDBRANCH   9  11
BRANCH   9  12
ATOM     12  C   LIG    1        0.169  -1.538  -0.680  0.00  0.00    +0.060 C 
BRANCH  12  13
ATOM     13  C   LIG    1        0.766  -2.772  -1.360  0.00  0.00    -0.040 C 
ATOM     14  C   LIG    1        0.358  -2.789  -2.835  0.00  0.00    +0.020 C 
ATOM     15  C   LIG    1        0.246  -4.035  -0.672  0.00  0.00    +0.050 C 
ENDBRANCH  12  13
ENDBRANCH   9  12
ENDBRANCH   1   9
TORSDOF 5
ENDMDL
MODEL      261
REMARK  Name = ZINC001207606326
REMARK                            x       y       z     vdW  Elec       q    Type
REMARK                         _______ _______ _______ _____ _____    ______ ____
ROOT
ATOM      1  C   LIG    1        1.654  -3.963  -2.348  0.00  0.00    +0.030 C 
ENDROOT
BRANCH   1   2
ATOM      2  C   LIG    1        1.528  -2.439  -2.409  0.00  0.00    +0.250 C 
BRANCH   2   3
ATOM      3  N   LIG    1        0.738  -1.966  -1.265  0.00  0.00    -0.390 N 
ATOM      4  C   LIG    1       -0.636  -2.474  -1.375  0.00  0.00    +0.300 C 
ATOM      5  H   LIG    1        1.153  -2.302  -0.408  0.00  0.00    +0.420 HD
BRANCH   3   6
ATOM      6  C   LIG    1        0.718  -0.497  -1.257  0.00  0.00    +0.250 C 
BRANCH   6   8
ATOM      7  C   LIG    1       -0.019   1.526   0.010  0.00  0.00    +0.060 C 
ATOM      8  C   LIG    1        0.002  -0.004   0.002  0.00  0.00    +0.030 C 
ENDBRANCH   6   8
ENDBRANCH   3   6
ENDBRANCH   2   3
ENDBRANCH   1   2
BRANCH   1   9
ATOM      9  C   LIG    1        2.477  -4.455  -3.541  0.00  0.00    +0.030 C 
BRANCH   9  10
ATOM     10  C   LIG    1        2.602  -5.979  -3.479  0.00  0.00    -0.020 C 
ATOM     11  C   LIG    1        1.220  -6.612  -3.652  0.00  0.00    +0.000 C 
ATOM     12  C   LIG    1        1.345  -8.135  -3.591  0.00  0.00    +0.000 C 
ATOM     13  C   LIG    1        2.270  -8.616  -4.711  0.00  0.00    +0.000 C 
ATOM     14  C   LIG    1        3.652  -7.983  -4.538  0.00  0.00    +0.010 C 
ATOM     15  C   LIG    1        3.527  -6.460  -4.599  0.00  0.00    +0.000 C 
ENDBRANCH   9  10
ENDBRANCH   1   9
TORSDOF 6
ENDMDL
MODEL      262
REMARK  Name = ZINC001172408045
REMARK                            x       y       z     vdW  Elec       q    Type
REMARK                         _______ _______ _______ _____ _____    ______ ____
ROOT
ATOM      1  N   LIG    1        2.268   0.536   1.175  0.00  0.00    -0.380 N 
ATOM      2  C   LIG    1        3.010   0.372  -0.094  0.00  0.00    +0.240 C 
ATOM      3  C   LIG    1        2.473   1.496  -1.014  0.00  0.00    +0.080 C 
ATOM      4  C   LIG    1        2.276   2.659  -0.006  0.00  0.00    +0.070 C 
ATOM      5  C   LIG    1        1.812   1.935   1.271  0.00  0.00    +0.160 C 
ATOM      6  H   LIG    1        2.874   0.322   1.953  0.00  0.00    +0.420 HD
ENDROOT
BRANCH   5   7
ATOM      7  C   LIG    1        2.433   2.600   2.502  0.00  0.00    +0.050 C 
ATOM      8  C   LIG    1        1.854   1.969   3.769  0.00  0.00    +0.020 C 
ENDBRANCH   5   7
BRANCH   1   9
ATOM      9  C   LIG    1        1.107  -0.364   1.189  0.00  0.00    +0.160 C 
BRANCH   9  11
ATOM     10  C   LIG    1       -0.386   1.183  -0.083  0.00  0.00    +0.030 C 
ATOM     11  C   LIG    1        0.305  -0.182  -0.101  0.00  0.00    +0.060 C 
ENDBRANCH   9  11
BRANCH   9  12
ATOM     12  C   LIG    1        1.587  -1.813   1.291  0.00  0.00    +0.060 C 
BRANCH  12  13
ATOM     13  C   LIG    1        2.321  -2.016   2.618  0.00  0.00    -0.040 C 
ATOM     14  C   LIG    1        2.886  -3.436   2.677  0.00  0.00    +0.050 C 
ATOM     15  C   LIG    1        1.344  -1.808   3.777  0.00  0.00    +0.030 C 
ENDBRANCH  12  13
ENDBRANCH   9  12
ENDBRANCH   1   9
TORSDOF 5
ENDMDL
MODEL      263
REMARK  Name = ZINC001208088802
REMARK                            x       y       z     vdW  Elec       q    Type
REMARK                         _______ _______ _______ _____ _____    ______ ____
ROOT
ATOM      1  C   LIG    1       -3.429  -0.952   1.193  0.00  0.00    +0.240 C 
ENDROOT
BRANCH   1   2
ATOM      2  N   LIG    1       -2.140  -0.279   1.398  0.00  0.00    -0.380 N 
ATOM      3  C   LIG    1       -2.349   1.174   1.454  0.00  0.00    +0.310 C 
ATOM      4  H   LIG    1       -1.730  -0.593   2.265  0.00  0.00    +0.420 HD
BRANCH   2   5
ATOM      5  C   LIG    1       -1.237  -0.601   0.285  0.00  0.00    +0.160 C 
ATOM      6  C   LIG    1       -1.905  -0.225  -1.039  0.00  0.00    +0.080 C 
BRANCH   5   8
ATOM      7  C   LIG    1       -0.177  -2.459   1.576  0.00  0.00    +0.030 C 
ATOM      8  C   LIG    1       -0.931  -2.100   0.294  0.00  0.00    +0.050 C 
ENDBRANCH   5   8
ENDBRANCH   2   5
ENDBRANCH   1   2
BRANCH   1   9
ATOM      9  C   LIG    1       -4.332  -0.704   2.404  0.00  0.00    +0.020 C 
BRANCH   9  10
ATOM     10  C   LIG    1       -5.675  -1.405   2.190  0.00  0.00    +0.030 C 
BRANCH  10  11
ATOM     11  C   LIG    1       -6.578  -1.158   3.401  0.00  0.00    -0.010 C 
ATOM     12  C   LIG    1       -7.035   0.322   3.442  0.00  0.00    +0.010 C 
ATOM     13  C   LIG    1       -8.337   0.253   4.279  0.00  0.00    +0.010 C 
ATOM     14  C   LIG    1       -9.009  -1.059   3.825  0.00  0.00    +0.010 C 
ATOM     15  C   LIG    1       -7.891  -1.956   3.267  0.00  0.00    +0.020 C 
ENDBRANCH  10  11
ENDBRANCH   9  10
ENDBRANCH   1   9
TORSDOF 6
ENDMDL
MODEL      264
REMARK  Name = ZINC001208086880
REMARK                            x       y       z     vdW  Elec       q    Type
REMARK                         _______ _______ _______ _____ _____    ______ ____
ROOT
ATOM      1  C   LIG    1        1.342  -3.966  -2.543  0.00  0.00    +0.250 C 
ENDROOT
BRANCH   1   2
ATOM      2  N   LIG    1        1.427  -2.501  -2.474  0.00  0.00    -0.390 N 
ATOM      3  C   LIG    1        2.837  -2.094  -2.426  0.00  0.00    +0.300 C 
ATOM      4  H   LIG    1        0.988  -2.100  -3.289  0.00  0.00    +0.420 HD
BRANCH   2   5
ATOM      5  C   LIG    1        0.739  -2.027  -1.265  0.00  0.00    +0.250 C 
BRANCH   5   6
ATOM      6  C   LIG    1        0.718  -0.497  -1.257  0.00  0.00    +0.030 C 
BRANCH   6   8
ATOM      7  C   LIG    1       -0.019   1.526   0.010  0.00  0.00    +0.030 C 
ATOM      8  C   LIG    1        0.002  -0.004   0.002  0.00  0.00    +0.020 C 
ENDBRANCH   6   8
ENDBRANCH   5   6
ENDBRANCH   2   5
ENDBRANCH   1   2
BRANCH   1   9
ATOM      9  C   LIG    1        1.948  -4.450  -3.862  0.00  0.00    +0.030 C 
BRANCH   9  10
ATOM     10  C   LIG    1        1.860  -5.976  -3.933  0.00  0.00    +0.030 C 
BRANCH  10  11
ATOM     11  C   LIG    1        2.466  -6.460  -5.252  0.00  0.00    -0.010 C 
ATOM     12  C   LIG    1        4.003  -6.266  -5.246  0.00  0.00    +0.010 C 
ATOM     13  C   LIG    1        4.482  -7.305  -6.290  0.00  0.00    +0.010 C 
ATOM     14  C   LIG    1        3.560  -8.521  -6.066  0.00  0.00    +0.010 C 
ATOM     15  C   LIG    1        2.278  -7.984  -5.406  0.00  0.00    +0.020 C 
ENDBRANCH  10  11
ENDBRANCH   9  10
ENDBRANCH   1   9
TORSDOF 7
ENDMDL
MODEL      265
REMARK  Name = ZINC001208086682
REMARK                            x       y       z     vdW  Elec       q    Type
REMARK                         _______ _______ _______ _____ _____    ______ ____
ROOT
ATOM      1  C   LIG    1        2.166   0.016  -1.033  0.00  0.00    +0.240 C 
ENDROOT
BRANCH   1   2
ATOM      2  N   LIG    1        0.806  -0.350  -1.449  0.00  0.00    -0.380 N 
ATOM      3  H   LIG    1        0.555   0.171  -2.276  0.00  0.00    +0.420 HD
BRANCH   2   4
ATOM      4  C   LIG    1        0.755  -1.788  -1.743  0.00  0.00    +0.160 C 
ATOM      5  C   LIG    1        1.738  -2.114  -2.870  0.00  0.00    +0.090 C 
ATOM      6  C   LIG    1       -0.662  -2.170  -2.177  0.00  0.00    +0.080 C 
ENDBRANCH   2   4
BRANCH   2   8
ATOM      7  C   LIG    1        0.174  -0.910   0.850  0.00  0.00    +0.070 C 
ATOM      8  C   LIG    1       -0.138  -0.038  -0.368  0.00  0.00    +0.240 C 
ENDBRANCH   2   8
ENDBRANCH   1   2
BRANCH   1   9
ATOM      9  C   LIG    1        2.248   1.531  -0.833  0.00  0.00    +0.020 C 
BRANCH   9  10
ATOM     10  C   LIG    1        3.695   1.929  -0.538  0.00  0.00    +0.030 C 
BRANCH  10  11
ATOM     11  C   LIG    1        3.776   3.444  -0.338  0.00  0.00    -0.010 C 
ATOM     12  C   LIG    1        3.094   3.853   0.992  0.00  0.00    +0.010 C 
ATOM     13  C   LIG    1        3.772   5.206   1.322  0.00  0.00    +0.010 C 
ATOM     14  C   LIG    1        5.241   5.007   0.893  0.00  0.00    +0.010 C 
ATOM     15  C   LIG    1        5.243   3.887  -0.162  0.00  0.00    +0.020 C 
ENDBRANCH  10  11
ENDBRANCH   9  10
ENDBRANCH   1   9
TORSDOF 6
ENDMDL
MODEL      266
REMARK  Name = ZINC001208088803
REMARK                            x       y       z     vdW  Elec       q    Type
REMARK                         _______ _______ _______ _____ _____    ______ ____
ROOT
ATOM      1  C   LIG    1       -1.881   1.417  -1.203  0.00  0.00    +0.250 C 
ENDROOT
BRANCH   1   2
ATOM      2  N   LIG    1       -2.053  -0.037  -1.093  0.00  0.00    -0.380 N 
ATOM      3  C   LIG    1       -3.486  -0.360  -1.060  0.00  0.00    +0.320 C 
ATOM      4  H   LIG    1       -1.625  -0.487  -1.888  0.00  0.00    +0.420 HD
BRANCH   2   5
ATOM      5  C   LIG    1       -1.416  -0.514   0.142  0.00  0.00    +0.160 C 
ATOM      6  C   LIG    1       -2.150   0.066   1.352  0.00  0.00    +0.080 C 
BRANCH   5   8
ATOM      7  C   LIG    1       -0.638  -2.624  -0.948  0.00  0.00    +0.020 C 
ATOM      8  C   LIG    1       -1.479  -2.042   0.191  0.00  0.00    +0.050 C 
ENDBRANCH   5   8
ENDBRANCH   2   5
ENDBRANCH   1   2
BRANCH   1   9
ATOM      9  C   LIG    1       -2.412   1.893  -2.557  0.00  0.00    +0.030 C 
BRANCH   9  10
ATOM     10  C   LIG    1       -2.232   3.408  -2.671  0.00  0.00    +0.030 C 
BRANCH  10  11
ATOM     11  C   LIG    1       -2.763   3.884  -4.025  0.00  0.00    -0.010 C 
ATOM     12  C   LIG    1       -4.308   3.778  -4.069  0.00  0.00    +0.010 C 
ATOM     13  C   LIG    1       -4.689   4.809  -5.161  0.00  0.00    +0.010 C 
ATOM     14  C   LIG    1       -3.705   5.976  -4.939  0.00  0.00    +0.010 C 
ATOM     15  C   LIG    1       -2.481   5.388  -4.217  0.00  0.00    +0.020 C 
ENDBRANCH  10  11
ENDBRANCH   9  10
ENDBRANCH   1   9
TORSDOF 6
ENDMDL
MODEL      267
REMARK  Name = ZINC001208086837
REMARK                            x       y       z     vdW  Elec       q    Type
REMARK                         _______ _______ _______ _____ _____    ______ ____
ROOT
ATOM      1  C   LIG    1        1.365  -2.604   2.548  0.00  0.00    +0.250 C 
ENDROOT
BRANCH   1   2
ATOM      2  N   LIG    1        0.915  -2.077   1.253  0.00  0.00    -0.390 N 
ATOM      3  H   LIG    1        1.538  -2.395   0.526  0.00  0.00    +0.420 HD
BRANCH   2   4
ATOM      4  C   LIG    1        0.918  -0.609   1.294  0.00  0.00    +0.240 C 
ATOM      5  C   LIG    1        2.357  -0.105   1.422  0.00  0.00    +0.080 C 
ENDBRANCH   2   4
BRANCH   2   6
ATOM      6  C   LIG    1       -0.446  -2.557   0.975  0.00  0.00    +0.250 C 
BRANCH   6   8
ATOM      7  C   LIG    1       -2.284  -2.611  -0.716  0.00  0.00    +0.060 C 
ATOM      8  C   LIG    1       -0.867  -2.111  -0.427  0.00  0.00    +0.030 C 
ENDBRANCH   6   8
ENDBRANCH   2   6
ENDBRANCH   1   2
BRANCH   1   9
ATOM      9  C   LIG    1        1.487  -4.127   2.464  0.00  0.00    +0.030 C 
BRANCH   9  10
ATOM     10  C   LIG    1        2.064  -4.665   3.775  0.00  0.00    +0.030 C 
BRANCH  10  11
ATOM     11  C   LIG    1        2.186  -6.188   3.692  0.00  0.00    -0.010 C 
ATOM     12  C   LIG    1        3.310  -6.588   2.704  0.00  0.00    +0.010 C 
ATOM     13  C   LIG    1        3.698  -8.009   3.184  0.00  0.00    +0.010 C 
ATOM     14  C   LIG    1        3.609  -7.926   4.722  0.00  0.00    +0.010 C 
ATOM     15  C   LIG    1        2.648  -6.768   5.045  0.00  0.00    +0.020 C 
ENDBRANCH  10  11
ENDBRANCH   9  10
ENDBRANCH   1   9
TORSDOF 7
ENDMDL
MODEL      268
REMARK  Name = ZINC000618497944
REMARK                            x       y       z     vdW  Elec       q    Type
REMARK                         _______ _______ _______ _____ _____    ______ ____
ROOT
ATOM      1  N   LIG    1       -1.090  -2.948   0.421  0.00  0.00    -0.380 N 
ATOM      2  H   LIG    1       -0.350  -3.376   0.958  0.00  0.00    +0.420 HD
ENDROOT
BRANCH   1   3
ATOM      3  C   LIG    1       -0.512  -2.213  -0.711  0.00  0.00    +0.160 C 
ATOM      4  C   LIG    1        0.599  -1.290  -0.206  0.00  0.00    +0.090 C 
ATOM      5  C   LIG    1       -1.601  -1.378  -1.387  0.00  0.00    +0.090 C 
ENDBRANCH   1   3
BRANCH   1   6
ATOM      6  C   LIG    1       -1.840  -2.019   1.277  0.00  0.00    +0.250 C 
BRANCH   6   8
ATOM      7  C   LIG    1       -1.646  -0.435   3.200  0.00  0.00    +0.060 C 
ATOM      8  C   LIG    1       -0.864  -1.231   2.152  0.00  0.00    +0.020 C 
ENDBRANCH   6   8
ENDBRANCH   1   6
BRANCH   1   9
ATOM      9  C   LIG    1       -1.996  -3.990  -0.082  0.00  0.00    +0.250 C 
BRANCH   9  10
ATOM     10  C   LIG    1       -1.186  -5.051  -0.831  0.00  0.00    -0.020 C 
ATOM     11  C   LIG    1       -0.163  -5.677   0.119  0.00  0.00    +0.000 C 
ATOM     12  C   LIG    1        0.646  -6.737  -0.631  0.00  0.00    +0.020 C 
ATOM     13  C   LIG    1       -0.297  -7.823  -1.153  0.00  0.00    +0.010 C 
ATOM     14  C   LIG    1       -1.320  -7.197  -2.102  0.00  0.00    +0.020 C 
ATOM     15  C   LIG    1       -2.129  -6.137  -1.353  0.00  0.00    +0.030 C 
ENDBRANCH   9  10
ENDBRANCH   1   9
TORSDOF 5
ENDMDL
MODEL      269
REMARK  Name = ZINC001208091129
REMARK                            x       y       z     vdW  Elec       q    Type
REMARK                         _______ _______ _______ _____ _____    ______ ____
ROOT
ATOM      1  C   LIG    1        0.690  -0.478  -1.207  0.00  0.00    +0.240 C 
ENDROOT
BRANCH   1   3
ATOM      2  C   LIG    1       -0.018   1.465   0.010  0.00  0.00    +0.320 C 
ATOM      3  N   LIG    1        0.002  -0.004   0.002  0.00  0.00    -0.380 N 
ATOM      4  H   LIG    1       -0.945  -0.353   0.009  0.00  0.00    +0.420 HD
BRANCH   3   5
ATOM      5  C   LIG    1        0.713  -0.491   1.192  0.00  0.00    +0.050 C 
ATOM      6  C   LIG    1        2.148   0.039   1.181  0.00  0.00    +0.080 C 
ATOM      7  C   LIG    1        0.733  -2.021   1.184  0.00  0.00    +0.090 C 
ATOM      8  C   LIG    1       -0.004   0.003   2.451  0.00  0.00    +0.080 C 
ENDBRANCH   3   5
ENDBRANCH   1   3
BRANCH   1   9
ATOM      9  C   LIG    1       -0.118  -0.077  -2.443  0.00  0.00    +0.030 C 
BRANCH   9  10
ATOM     10  C   LIG    1        0.598  -0.571  -3.702  0.00  0.00    +0.030 C 
BRANCH  10  11
ATOM     11  C   LIG    1       -0.209  -0.170  -4.938  0.00  0.00    -0.010 C 
ATOM     12  C   LIG    1       -0.141   1.362  -5.157  0.00  0.00    +0.010 C 
ATOM     13  C   LIG    1       -0.442   1.505  -6.669  0.00  0.00    +0.010 C 
ATOM     14  C   LIG    1        0.277   0.302  -7.314  0.00  0.00    +0.010 C 
ATOM     15  C   LIG    1        0.426  -0.763  -6.213  0.00  0.00    +0.020 C 
ENDBRANCH  10  11
ENDBRANCH   9  10
ENDBRANCH   1   9
TORSDOF 5
ENDMDL
MODEL      270
REMARK  Name = ZINC001208128374
REMARK                            x       y       z     vdW  Elec       q    Type
REMARK                         _______ _______ _______ _____ _____    ______ ____
ROOT
ATOM      1  N   LIG    1       -2.864  -5.194   1.923  0.00  0.00    -0.380 N 
ATOM      2  C   LIG    1       -2.620  -5.507   3.337  0.00  0.00    +0.250 C 
ATOM      3  C   LIG    1       -2.616  -7.025   3.533  0.00  0.00    +0.050 C 
ATOM      4  C   LIG    1       -3.973  -7.593   3.110  0.00  0.00    +0.030 C 
ATOM      5  C   LIG    1       -4.250  -7.197   1.656  0.00  0.00    +0.060 C 
ATOM      6  C   LIG    1       -4.195  -5.673   1.531  0.00  0.00    +0.160 C 
ATOM      7  C   LIG    1       -4.470  -5.271   0.080  0.00  0.00    +0.080 C 
ATOM      8  H   LIG    1       -2.164  -5.646   1.354  0.00  0.00    +0.420 HD
ENDROOT
BRANCH   1   9
ATOM      9  C   LIG    1       -2.790  -3.740   1.725  0.00  0.00    +0.240 C 
BRANCH   9  10
ATOM     10  C   LIG    1       -1.366  -3.259   2.011  0.00  0.00    +0.040 C 
BRANCH  10  11
ATOM     11  C   LIG    1       -1.289  -1.744   1.805  0.00  0.00    +0.080 C 
BRANCH  11  13
ATOM     12  C   LIG    1        0.757  -0.563   1.192  0.00  0.00    -0.010 C 
ATOM     13  C   LIG    1        0.113  -1.270   2.087  0.00  0.00    -0.070 C 
BRANCH  12  15
ATOM     14  C   LIG    1        0.248   1.428  -0.196  0.00  0.00    +0.030 C 
ATOM     15  C   LIG    1        0.043  -0.081  -0.044  0.00  0.00    +0.030 C 
ENDBRANCH  12  15
ENDBRANCH  11  13
ENDBRANCH  10  11
ENDBRANCH   9  10
ENDBRANCH   1   9
TORSDOF 5
ENDMDL
MODEL      271
REMARK  Name = ZINC000308212708
REMARK                            x       y       z     vdW  Elec       q    Type
REMARK                         _______ _______ _______ _____ _____    ______ ____
ROOT
ATOM      1  N   LIG    1       -0.600  -2.312  -1.198  0.00  0.00    -0.380 N 
ATOM      2  H   LIG    1       -1.172  -2.104  -2.002  0.00  0.00    +0.420 HD
ENDROOT
BRANCH   1   3
ATOM      3  C   LIG    1        0.781  -1.882  -1.455  0.00  0.00    +0.160 C 
ATOM      4  C   LIG    1        1.678  -2.327  -0.298  0.00  0.00    +0.090 C 
BRANCH   3   5
ATOM      5  C   LIG    1        1.278  -2.513  -2.757  0.00  0.00    +0.050 C 
BRANCH   5   7
ATOM      6  C   LIG    1        1.009  -2.532  -5.241  0.00  0.00    +0.040 C 
ATOM      7  C   LIG    1        0.432  -2.003  -3.926  0.00  0.00    -0.000 C 
ENDBRANCH   5   7
ENDBRANCH   3   5
ENDBRANCH   1   3
BRANCH   1   8
ATOM      8  C   LIG    1       -1.125  -1.599  -0.026  0.00  0.00    +0.240 C 
BRANCH   8   9
ATOM      9  C   LIG    1       -1.225  -0.105  -0.341  0.00  0.00    -0.030 C 
ATOM     10  C   LIG    1       -1.667   0.652   0.913  0.00  0.00    +0.070 C 
ATOM     11  C   LIG    1       -2.248   0.114  -1.457  0.00  0.00    +0.030 C 
ENDBRANCH   8   9
ENDBRANCH   1   8
BRANCH   1  12
ATOM     12  C   LIG    1       -0.622  -3.758  -0.941  0.00  0.00    +0.240 C 
BRANCH  12  13
ATOM     13  C   LIG    1       -2.072  -4.234  -0.832  0.00  0.00    +0.020 C 
ATOM     14  C   LIG    1       -2.095  -5.726  -0.491  0.00  0.00    +0.060 C 
ENDBRANCH  12  13
ENDBRANCH   1  12
TORSDOF 7
ENDMDL
MODEL      272
REMARK  Name = ZINC000308212707
REMARK                            x       y       z     vdW  Elec       q    Type
REMARK                         _______ _______ _______ _____ _____    ______ ____
ROOT
ATOM      1  N   LIG    1        2.190  -2.396  -0.553  0.00  0.00    -0.380 N 
ATOM      2  H   LIG    1        3.167  -2.438  -0.803  0.00  0.00    +0.420 HD
ENDROOT
BRANCH   1   3
ATOM      3  C   LIG    1        1.441  -1.714  -1.616  0.00  0.00    +0.160 C 
ATOM      4  C   LIG    1       -0.057  -1.781  -1.309  0.00  0.00    +0.090 C 
BRANCH   3   5
ATOM      5  C   LIG    1        1.718  -2.399  -2.956  0.00  0.00    +0.050 C 
BRANCH   5   7
ATOM      6  C   LIG    1        3.493  -2.996  -4.610  0.00  0.00    +0.040 C 
ATOM      7  C   LIG    1        3.195  -2.232  -3.318  0.00  0.00    -0.010 C 
ENDBRANCH   5   7
ENDBRANCH   3   5
ENDBRANCH   1   3
BRANCH   1   8
ATOM      8  C   LIG    1        1.669  -3.759  -0.384  0.00  0.00    +0.240 C 
BRANCH   8   9
ATOM      9  C   LIG    1        2.509  -4.501   0.658  0.00  0.00    -0.020 C 
ATOM     10  C   LIG    1        2.587  -5.984   0.289  0.00  0.00    +0.070 C 
ATOM     11  C   LIG    1        1.860  -4.352   2.036  0.00  0.00    +0.040 C 
ENDBRANCH   8   9
ENDBRANCH   1   8
BRANCH   1  12
ATOM     12  C   LIG    1        2.038  -1.655   0.706  0.00  0.00    +0.240 C 
BRANCH  12  13
ATOM     13  C   LIG    1        2.635  -0.255   0.549  0.00  0.00    +0.020 C 
ATOM     14  C   LIG    1        2.600   0.469   1.896  0.00  0.00    +0.060 C 
ENDBRANCH  12  13
ENDBRANCH   1  12
TORSDOF 7
ENDMDL
MODEL      273
REMARK  Name = ZINC001208132330
REMARK                            x       y       z     vdW  Elec       q    Type
REMARK                         _______ _______ _______ _____ _____    ______ ____
ROOT
ATOM      1  N   LIG    1       -2.864  -5.194   1.923  0.00  0.00    -0.390 N 
ATOM      2  C   LIG    1       -2.018  -5.867   0.928  0.00  0.00    +0.310 C 
ATOM      3  H   LIG    1       -2.540  -5.424   2.851  0.00  0.00    +0.420 HD
ENDROOT
BRANCH   1   4
ATOM      4  C   LIG    1       -2.790  -3.740   1.725  0.00  0.00    +0.250 C 
BRANCH   4   5
ATOM      5  C   LIG    1       -1.366  -3.259   2.011  0.00  0.00    +0.040 C 
BRANCH   5   6
ATOM      6  C   LIG    1       -1.289  -1.744   1.805  0.00  0.00    +0.070 C 
BRANCH   6   8
ATOM      7  C   LIG    1        0.757  -0.563   1.192  0.00  0.00    -0.010 C 
ATOM      8  C   LIG    1        0.113  -1.270   2.087  0.00  0.00    -0.070 C 
BRANCH   7  10
ATOM      9  C   LIG    1        0.248   1.428  -0.196  0.00  0.00    +0.030 C 
ATOM     10  C   LIG    1        0.043  -0.081  -0.044  0.00  0.00    +0.030 C 
ENDBRANCH   7  10
ENDBRANCH   6   8
ENDBRANCH   5   6
ENDBRANCH   4   5
ENDBRANCH   1   4
BRANCH   1  11
ATOM     11  C   LIG    1       -4.255  -5.640   1.766  0.00  0.00    +0.250 C 
BRANCH  11  12
ATOM     12  C   LIG    1       -4.353  -7.131   2.094  0.00  0.00    +0.030 C 
BRANCH  12  13
ATOM     13  C   LIG    1       -5.801  -7.595   1.930  0.00  0.00    +0.020 C 
BRANCH  13  14
ATOM     14  C   LIG    1       -5.899  -9.086   2.258  0.00  0.00    +0.010 C 
ATOM     15  C   LIG    1       -7.348  -9.550   2.094  0.00  0.00    +0.020 C 
ENDBRANCH  13  14
ENDBRANCH  12  13
ENDBRANCH  11  12
ENDBRANCH   1  11
TORSDOF 9
ENDMDL
MODEL      274
REMARK  Name = ZINC001208128371
REMARK                            x       y       z     vdW  Elec       q    Type
REMARK                         _______ _______ _______ _____ _____    ______ ____
ROOT
ATOM      1  N   LIG    1       -2.864  -5.194   1.923  0.00  0.00    -0.380 N 
ATOM      2  C   LIG    1       -2.620  -5.507   3.337  0.00  0.00    +0.240 C 
ATOM      3  C   LIG    1       -2.616  -7.025   3.533  0.00  0.00    +0.060 C 
ATOM      4  C   LIG    1       -3.973  -7.593   3.110  0.00  0.00    +0.030 C 
ATOM      5  C   LIG    1       -4.250  -7.197   1.656  0.00  0.00    +0.060 C 
ATOM      6  C   LIG    1       -4.195  -5.673   1.531  0.00  0.00    +0.170 C 
ATOM      7  C   LIG    1       -5.252  -5.048   2.443  0.00  0.00    +0.070 C 
ATOM      8  H   LIG    1       -2.164  -5.646   1.354  0.00  0.00    +0.420 HD
ENDROOT
BRANCH   1   9
ATOM      9  C   LIG    1       -2.790  -3.740   1.725  0.00  0.00    +0.250 C 
BRANCH   9  10
ATOM     10  C   LIG    1       -1.366  -3.259   2.011  0.00  0.00    +0.040 C 
BRANCH  10  11
ATOM     11  C   LIG    1       -1.289  -1.744   1.805  0.00  0.00    +0.080 C 
BRANCH  11  13
ATOM     12  C   LIG    1        0.757  -0.563   1.192  0.00  0.00    -0.010 C 
ATOM     13  C   LIG    1        0.113  -1.270   2.087  0.00  0.00    -0.070 C 
BRANCH  12  15
ATOM     14  C   LIG    1        0.248   1.428  -0.196  0.00  0.00    +0.030 C 
ATOM     15  C   LIG    1        0.043  -0.081  -0.044  0.00  0.00    +0.030 C 
ENDBRANCH  12  15
ENDBRANCH  11  13
ENDBRANCH  10  11
ENDBRANCH   9  10
ENDBRANCH   1   9
TORSDOF 5
ENDMDL
MODEL      275
REMARK  Name = ZINC000620119527
REMARK                            x       y       z     vdW  Elec       q    Type
REMARK                         _______ _______ _______ _____ _____    ______ ____
ROOT
ATOM      1  N   LIG    1       -0.189  -0.387  -3.079  0.00  0.00    -0.350 N 
ATOM      2  H   LIG    1       -1.168  -0.622  -3.143  0.00  0.00    +0.410 HD
ENDROOT
BRANCH   1   3
ATOM      3  C   LIG    1        0.446  -0.574  -4.391  0.00  0.00    +0.090 C 
ATOM      4  C   LIG    1       -0.310  -1.404  -5.430  0.00  0.00    +0.090 C 
ATOM      5  C   LIG    1       -0.203   0.114  -5.594  0.00  0.00    +0.100 C 
ENDBRANCH   1   3
BRANCH   1   6
ATOM      6  C   LIG    1        0.461  -1.260  -2.092  0.00  0.00    +0.170 C 
BRANCH   6   8
ATOM      7  C   LIG    1        2.755  -0.555  -2.785  0.00  0.00    +0.030 C 
ATOM      8  C   LIG    1        1.765  -0.615  -1.620  0.00  0.00    +0.050 C 
ENDBRANCH   6   8
BRANCH   6   9
ATOM      9  C   LIG    1       -0.472  -1.460  -0.896  0.00  0.00    +0.050 C 
ATOM     10  C   LIG    1       -1.714  -2.235  -1.342  0.00  0.00    +0.030 C 
ENDBRANCH   6   9
ENDBRANCH   1   6
BRANCH   1  11
ATOM     11  C   LIG    1       -0.047   1.014  -2.662  0.00  0.00    +0.290 C 
BRANCH  11  12
ATOM     12  C   LIG    1       -0.864   1.895  -3.572  0.00  0.00    -0.120 C 
ATOM     13  C   LIG    1       -0.303   2.917  -4.170  0.00  0.00    -0.040 C 
ATOM     14  C   LIG    1       -1.099   3.751  -5.140  0.00  0.00    +0.090 C 
ATOM     15  C   LIG    1        1.137   3.258  -3.887  0.00  0.00    +0.080 C 
ENDBRANCH  11  12
ENDBRANCH   1  11
TORSDOF 6
ENDMDL
MODEL      276
REMARK  Name = ZINC000620119249
REMARK                            x       y       z     vdW  Elec       q    Type
REMARK                         _______ _______ _______ _____ _____    ______ ____
ROOT
ATOM      1  N   LIG    1        2.347  -0.197   1.147  0.00  0.00    -0.350 N 
ATOM      2  H   LIG    1        3.088   0.010   0.495  0.00  0.00    +0.420 HD
ENDROOT
BRANCH   1   3
ATOM      3  C   LIG    1        2.922  -0.484   2.468  0.00  0.00    +0.090 C 
ATOM      4  C   LIG    1        3.909  -1.648   2.572  0.00  0.00    +0.090 C 
ATOM      5  C   LIG    1        4.414  -0.207   2.664  0.00  0.00    +0.090 C 
ENDBRANCH   1   3
BRANCH   1   6
ATOM      6  C   LIG    1        1.595  -1.368   0.676  0.00  0.00    +0.170 C 
BRANCH   6   8
ATOM      7  C   LIG    1        0.428  -1.609   2.872  0.00  0.00    +0.030 C 
ATOM      8  C   LIG    1        0.231  -1.410   1.368  0.00  0.00    +0.050 C 
ENDBRANCH   6   8
BRANCH   6   9
ATOM      9  C   LIG    1        1.396  -1.272  -0.838  0.00  0.00    +0.050 C 
ATOM     10  C   LIG    1        2.759  -1.297  -1.533  0.00  0.00    +0.040 C 
ENDBRANCH   6   9
ENDBRANCH   1   6
BRANCH   1  11
ATOM     11  C   LIG    1        1.444   0.957   1.246  0.00  0.00    +0.250 C 
BRANCH  11  12
ATOM     12  C   LIG    1        2.249   2.204   1.619  0.00  0.00    +0.030 C 
BRANCH  12  13
ATOM     13  C   LIG    1        1.292   3.364   1.900  0.00  0.00    -0.010 C 
ATOM     14  C   LIG    1        2.097   4.640   2.151  0.00  0.00    +0.040 C 
ATOM     15  C   LIG    1        0.449   3.041   3.136  0.00  0.00    +0.020 C 
ENDBRANCH  12  13
ENDBRANCH  11  12
ENDBRANCH   1  11
TORSDOF 7
ENDMDL
MODEL      277
REMARK  Name = ZINC001208132960
REMARK                            x       y       z     vdW  Elec       q    Type
REMARK                         _______ _______ _______ _____ _____    ______ ____
ROOT
ATOM      1  N   LIG    1       -3.090  -5.213   1.148  0.00  0.00    -0.390 N 
ATOM      2  H   LIG    1       -2.876  -5.699   2.005  0.00  0.00    +0.420 HD
ENDROOT
BRANCH   1   3
ATOM      3  C   LIG    1       -2.196  -5.683   0.081  0.00  0.00    +0.240 C 
ATOM      4  C   LIG    1       -0.742  -5.546   0.538  0.00  0.00    +0.080 C 
ENDBRANCH   1   3
BRANCH   1   5
ATOM      5  C   LIG    1       -2.903  -3.769   1.343  0.00  0.00    +0.240 C 
BRANCH   5   6
ATOM      6  C   LIG    1       -3.740  -3.303   2.536  0.00  0.00    +0.040 C 
BRANCH   6   7
ATOM      7  C   LIG    1       -3.439  -1.831   2.825  0.00  0.00    +0.070 C 
BRANCH   7   9
ATOM      8  C   LIG    1       -3.679  -0.818   5.034  0.00  0.00    -0.010 C 
ATOM      9  C   LIG    1       -4.263  -1.372   4.000  0.00  0.00    -0.070 C 
BRANCH   8  11
ATOM     10  C   LIG    1       -2.023   0.998   5.367  0.00  0.00    +0.030 C 
ATOM     11  C   LIG    1       -2.215  -0.468   4.974  0.00  0.00    +0.030 C 
ENDBRANCH   8  11
ENDBRANCH   7   9
ENDBRANCH   6   7
ENDBRANCH   5   6
ENDBRANCH   1   5
BRANCH   1  12
ATOM     12  C   LIG    1       -4.485  -5.479   0.770  0.00  0.00    +0.250 C 
BRANCH  12  13
ATOM     13  C   LIG    1       -4.711  -6.990   0.688  0.00  0.00    +0.030 C 
BRANCH  13  14
ATOM     14  C   LIG    1       -6.164  -7.268   0.295  0.00  0.00    +0.020 C 
ATOM     15  C   LIG    1       -6.390  -8.778   0.213  0.00  0.00    +0.030 C 
ENDBRANCH  13  14
ENDBRANCH  12  13
ENDBRANCH   1  12
TORSDOF 9
ENDMDL
MODEL      278
REMARK  Name = ZINC000620443125
REMARK                            x       y       z     vdW  Elec       q    Type
REMARK                         _______ _______ _______ _____ _____    ______ ____
ROOT
ATOM      1  N   LIG    1       -1.115  -1.251  -0.197  0.00  0.00    -0.380 N 
ATOM      2  C   LIG    1       -2.019  -1.020  -1.332  0.00  0.00    +0.310 C 
ATOM      3  H   LIG    1       -1.638  -1.206   0.664  0.00  0.00    +0.420 HD
ENDROOT
BRANCH   1   5
ATOM      4  C   LIG    1        0.263   0.183  -1.627  0.00  0.00    +0.090 C 
ATOM      5  C   LIG    1       -0.068  -0.220  -0.189  0.00  0.00    +0.160 C 
BRANCH   5   6
ATOM      6  C   LIG    1       -0.563   1.004   0.584  0.00  0.00    -0.080 C 
ATOM      7  C   LIG    1        0.517   2.087   0.570  0.00  0.00    +0.070 C 
ATOM      8  C   LIG    1       -0.869   0.606   2.029  0.00  0.00    +0.050 C 
ATOM      9  C   LIG    1       -1.834   1.543  -0.076  0.00  0.00    +0.050 C 
ENDBRANCH   5   6
ENDBRANCH   1   5
BRANCH   1  10
ATOM     10  C   LIG    1       -0.496  -2.577  -0.326  0.00  0.00    +0.250 C 
BRANCH  10  11
ATOM     11  C   LIG    1        0.323  -2.881   0.931  0.00  0.00    -0.020 C 
ATOM     12  C   LIG    1       -0.610  -3.074   2.152  0.00  0.00    +0.010 C 
ATOM     13  C   LIG    1        0.253  -3.933   3.109  0.00  0.00    +0.030 C 
ATOM     14  C   LIG    1        1.002  -4.905   2.174  0.00  0.00    +0.010 C 
ATOM     15  C   LIG    1        1.046  -4.236   0.789  0.00  0.00    +0.040 C 
ENDBRANCH  10  11
ENDBRANCH   1  10
TORSDOF 4
ENDMDL
MODEL      279
REMARK  Name = ZINC000620443124
REMARK                            x       y       z     vdW  Elec       q    Type
REMARK                         _______ _______ _______ _____ _____    ______ ____
ROOT
ATOM      1  N   LIG    1        1.151   0.117   1.049  0.00  0.00    -0.380 N 
ATOM      2  C   LIG    1        1.443  -1.282   1.392  0.00  0.00    +0.320 C 
ATOM      3  H   LIG    1        0.633   0.546   1.800  0.00  0.00    +0.420 HD
ENDROOT
BRANCH   1   5
ATOM      4  C   LIG    1        0.191   1.616  -0.633  0.00  0.00    +0.080 C 
ATOM      5  C   LIG    1        0.354   0.162  -0.184  0.00  0.00    +0.170 C 
BRANCH   5   6
ATOM      6  C   LIG    1       -1.025  -0.448   0.077  0.00  0.00    -0.080 C 
ATOM      7  C   LIG    1       -1.651   0.213   1.306  0.00  0.00    +0.050 C 
ATOM      8  C   LIG    1       -0.878  -1.951   0.326  0.00  0.00    +0.040 C 
ATOM      9  C   LIG    1       -1.923  -0.218  -1.139  0.00  0.00    +0.070 C 
ENDBRANCH   5   6
ENDBRANCH   1   5
BRANCH   1  10
ATOM     10  C   LIG    1        2.411   0.844   0.844  0.00  0.00    +0.250 C 
BRANCH  10  11
ATOM     11  C   LIG    1        3.043   1.160   2.201  0.00  0.00    -0.020 C 
ATOM     12  C   LIG    1        3.618  -0.126   2.845  0.00  0.00    +0.020 C 
ATOM     13  C   LIG    1        4.691   0.428   3.816  0.00  0.00    +0.020 C 
ATOM     14  C   LIG    1        5.319   1.610   3.050  0.00  0.00    +0.010 C 
ATOM     15  C   LIG    1        4.272   2.076   2.024  0.00  0.00    +0.040 C 
ENDBRANCH  10  11
ENDBRANCH   1  10
TORSDOF 4
ENDMDL
MODEL      280
REMARK  Name = ZINC000620807844
REMARK                            x       y       z     vdW  Elec       q    Type
REMARK                         _______ _______ _______ _____ _____    ______ ____
ROOT
ATOM      1  N   LIG    1        0.723  -0.244  -1.539  0.00  0.00    -0.380 N 
ATOM      2  H   LIG    1        0.356   0.151  -2.392  0.00  0.00    +0.420 HD
ENDROOT
BRANCH   1   4
ATOM      3  C   LIG    1        0.436  -0.418   0.887  0.00  0.00    +0.080 C 
ATOM      4  C   LIG    1       -0.178   0.077  -0.424  0.00  0.00    +0.230 C 
ENDBRANCH   1   4
BRANCH   1   5
ATOM      5  C   LIG    1        0.827  -1.702  -1.681  0.00  0.00    +0.160 C 
ATOM      6  C   LIG    1        1.710  -2.036  -2.885  0.00  0.00    +0.080 C 
BRANCH   5   7
ATOM      7  C   LIG    1       -0.567  -2.296  -1.890  0.00  0.00    -0.020 C 
ATOM      8  C   LIG    1       -0.461  -3.817  -2.019  0.00  0.00    +0.070 C 
ATOM      9  C   LIG    1       -1.181  -1.718  -3.168  0.00  0.00    +0.040 C 
ENDBRANCH   5   7
ENDBRANCH   1   5
BRANCH   1  10
ATOM     10  C   LIG    1        2.053   0.319  -1.271  0.00  0.00    +0.250 C 
BRANCH  10  11
ATOM     11  C   LIG    1        1.983   1.846  -1.334  0.00  0.00    -0.030 C 
ATOM     12  C   LIG    1        1.432   2.419  -0.005  0.00  0.00    +0.020 C 
ATOM     13  C   LIG    1        1.985   3.866  -0.002  0.00  0.00    +0.020 C 
ATOM     14  C   LIG    1        3.401   3.731  -0.599  0.00  0.00    +0.010 C 
ATOM     15  C   LIG    1        3.400   2.447  -1.447  0.00  0.00    +0.030 C 
ENDBRANCH  10  11
ENDBRANCH   1  10
TORSDOF 5
ENDMDL
MODEL      281
REMARK  Name = ZINC000620807845
REMARK                            x       y       z     vdW  Elec       q    Type
REMARK                         _______ _______ _______ _____ _____    ______ ____
ROOT
ATOM      1  N   LIG    1        0.614  -0.723  -1.276  0.00  0.00    -0.380 N 
ATOM      2  H   LIG    1        0.298  -0.156  -2.049  0.00  0.00    +0.420 HD
ENDROOT
BRANCH   1   4
ATOM      3  C   LIG    1        0.566   1.325   0.065  0.00  0.00    +0.080 C 
ATOM      4  C   LIG    1        0.137  -0.141  -0.014  0.00  0.00    +0.240 C 
ENDBRANCH   1   4
BRANCH   1   5
ATOM      5  C   LIG    1        0.083  -2.085  -1.419  0.00  0.00    +0.160 C 
ATOM      6  C   LIG    1        0.438  -2.904  -0.176  0.00  0.00    +0.080 C 
BRANCH   5   7
ATOM      7  C   LIG    1       -1.438  -2.026  -1.573  0.00  0.00    -0.020 C 
ATOM      8  C   LIG    1       -1.995  -3.446  -1.687  0.00  0.00    +0.070 C 
ATOM      9  C   LIG    1       -1.792  -1.236  -2.834  0.00  0.00    +0.040 C 
ENDBRANCH   5   7
ENDBRANCH   1   5
BRANCH   1  10
ATOM     10  C   LIG    1        2.083  -0.769  -1.270  0.00  0.00    +0.250 C 
BRANCH  10  11
ATOM     11  C   LIG    1        2.584  -1.232  -2.639  0.00  0.00    -0.020 C 
ATOM     12  C   LIG    1        2.309  -0.148  -3.712  0.00  0.00    +0.010 C 
ATOM     13  C   LIG    1        3.361  -0.473  -4.802  0.00  0.00    +0.030 C 
ATOM     14  C   LIG    1        4.614  -0.893  -4.007  0.00  0.00    +0.010 C 
ATOM     15  C   LIG    1        4.120  -1.376  -2.631  0.00  0.00    +0.040 C 
ENDBRANCH  10  11
ENDBRANCH   1  10
TORSDOF 5
ENDMDL
MODEL      282
REMARK  Name = ZINC001208136644
REMARK                            x       y       z     vdW  Elec       q    Type
REMARK                         _______ _______ _______ _____ _____    ______ ____
ROOT
ATOM      1  N   LIG    1       -0.149  -5.127  -3.544  0.00  0.00    -0.380 N 
ATOM      2  C   LIG    1       -1.489  -5.453  -4.050  0.00  0.00    +0.320 C 
ATOM      3  H   LIG    1        0.001  -5.596  -2.663  0.00  0.00    +0.420 HD
ENDROOT
BRANCH   1   4
ATOM      4  C   LIG    1        0.862  -5.572  -4.513  0.00  0.00    +0.160 C 
ATOM      5  C   LIG    1        2.287  -5.360  -3.945  0.00  0.00    +0.040 C 
ATOM      6  C   LIG    1        3.130  -6.382  -4.747  0.00  0.00    +0.050 C 
ATOM      7  C   LIG    1        2.207  -7.611  -4.881  0.00  0.00    +0.030 C 
ATOM      8  C   LIG    1        0.765  -7.096  -4.732  0.00  0.00    +0.040 C 
ENDBRANCH   1   4
BRANCH   1   9
ATOM      9  C   LIG    1       -0.037  -3.675  -3.352  0.00  0.00    +0.250 C 
BRANCH   9  10
ATOM     10  C   LIG    1       -1.004  -3.230  -2.252  0.00  0.00    +0.040 C 
BRANCH  10  11
ATOM     11  C   LIG    1       -0.887  -1.718  -2.053  0.00  0.00    +0.080 C 
BRANCH  11  13
ATOM     12  C   LIG    1       -1.397  -0.586   0.050  0.00  0.00    -0.010 C 
ATOM     13  C   LIG    1       -1.839  -1.279  -0.970  0.00  0.00    -0.070 C 
BRANCH  12  15
ATOM     14  C   LIG    1        0.028   1.422   0.342  0.00  0.00    +0.030 C 
ATOM     15  C   LIG    1        0.023  -0.082   0.059  0.00  0.00    +0.030 C 
ENDBRANCH  12  15
ENDBRANCH  11  13
ENDBRANCH  10  11
ENDBRANCH   9  10
ENDBRANCH   1   9
TORSDOF 6
ENDMDL
MODEL      283
REMARK  Name = ZINC001173255156
REMARK                            x       y       z     vdW  Elec       q    Type
REMARK                         _______ _______ _______ _____ _____    ______ ____
ROOT
ATOM      1  C   LIG    1       -4.066  -1.507   0.086  0.00  0.00    +0.160 C 
ENDROOT
BRANCH   1   2
ATOM      2  N   LIG    1       -3.753  -1.649   1.514  0.00  0.00    -0.380 N 
ATOM      3  C   LIG    1       -3.211  -2.991   1.766  0.00  0.00    +0.310 C 
ATOM      4  H   LIG    1       -4.593  -1.518   2.057  0.00  0.00    +0.420 HD
BRANCH   2   5
ATOM      5  C   LIG    1       -2.759  -0.639   1.900  0.00  0.00    +0.150 C 
ATOM      6  C   LIG    1       -2.564  -0.669   3.417  0.00  0.00    +0.080 C 
ATOM      7  C   LIG    1       -3.248   0.747   1.475  0.00  0.00    +0.080 C 
ENDBRANCH   2   5
ENDBRANCH   1   2
BRANCH   1   8
ATOM      8  C   LIG    1       -2.959  -2.157  -0.746  0.00  0.00    +0.050 C 
BRANCH   8   9
ATOM      9  C   LIG    1       -1.768  -1.201  -0.845  0.00  0.00    +0.010 C 
BRANCH   9  11
ATOM     10  C   LIG    1        0.462  -0.823  -1.905  0.00  0.00    +0.010 C 
ATOM     11  C   LIG    1       -0.728  -1.779  -1.806  0.00  0.00    +0.010 C 
ENDBRANCH   9  11
ENDBRANCH   8   9
ENDBRANCH   1   8
BRANCH   1  12
ATOM     12  C   LIG    1       -5.400  -2.195  -0.214  0.00  0.00    +0.040 C 
BRANCH  12  13
ATOM     13  C   LIG    1       -5.809  -1.905  -1.660  0.00  0.00    -0.010 C 
ATOM     14  C   LIG    1       -6.132  -0.416  -1.809  0.00  0.00    +0.020 C 
ATOM     15  C   LIG    1       -7.045  -2.733  -2.016  0.00  0.00    +0.040 C 
ENDBRANCH  12  13
ENDBRANCH   1  12
TORSDOF 7
ENDMDL
MODEL      284
REMARK  Name = ZINC001208136016
REMARK                            x       y       z     vdW  Elec       q    Type
REMARK                         _______ _______ _______ _____ _____    ______ ____
ROOT
ATOM      1  N   LIG    1       -2.864  -5.194   1.923  0.00  0.00    -0.390 N 
ATOM      2  C   LIG    1       -2.654  -5.513   3.352  0.00  0.00    +0.250 C 
ATOM      3  C   LIG    1       -4.081  -5.636   3.943  0.00  0.00    +0.080 C 
ATOM      4  C   LIG    1       -4.847  -6.310   2.774  0.00  0.00    +0.070 C 
ATOM      5  C   LIG    1       -4.198  -5.682   1.527  0.00  0.00    +0.160 C 
ATOM      6  H   LIG    1       -2.157  -5.650   1.366  0.00  0.00    +0.420 HD
ENDROOT
BRANCH   5   7
ATOM      7  C   LIG    1       -4.061  -6.734   0.425  0.00  0.00    +0.060 C 
ATOM      8  C   LIG    1       -3.497  -6.080  -0.838  0.00  0.00    +0.030 C 
ENDBRANCH   5   7
BRANCH   1   9
ATOM      9  C   LIG    1       -2.790  -3.740   1.725  0.00  0.00    +0.250 C 
BRANCH   9  10
ATOM     10  C   LIG    1       -1.366  -3.259   2.011  0.00  0.00    +0.040 C 
BRANCH  10  11
ATOM     11  C   LIG    1       -1.289  -1.744   1.805  0.00  0.00    +0.080 C 
BRANCH  11  13
ATOM     12  C   LIG    1        0.757  -0.563   1.192  0.00  0.00    -0.010 C 
ATOM     13  C   LIG    1        0.113  -1.270   2.087  0.00  0.00    -0.070 C 
BRANCH  12  15
ATOM     14  C   LIG    1        0.248   1.428  -0.196  0.00  0.00    +0.030 C 
ATOM     15  C   LIG    1        0.043  -0.081  -0.044  0.00  0.00    +0.030 C 
ENDBRANCH  12  15
ENDBRANCH  11  13
ENDBRANCH  10  11
ENDBRANCH   9  10
ENDBRANCH   1   9
TORSDOF 6
ENDMDL
MODEL      285
REMARK  Name = ZINC001173258441
REMARK                            x       y       z     vdW  Elec       q    Type
REMARK                         _______ _______ _______ _____ _____    ______ ____
ROOT
ATOM      1  C   LIG    1       -3.676  -2.700   0.805  0.00  0.00    +0.160 C 
ENDROOT
BRANCH   1   2
ATOM      2  N   LIG    1       -3.991  -2.939   2.220  0.00  0.00    -0.400 N 
ATOM      3  C   LIG    1       -4.956  -1.974   2.778  0.00  0.00    +0.290 C 
ATOM      4  C   LIG    1       -5.577  -3.135   3.567  0.00  0.00    +0.090 C 
ATOM      5  C   LIG    1       -5.006  -3.990   2.425  0.00  0.00    +0.170 C 
ATOM      6  C   LIG    1       -5.965  -4.150   1.244  0.00  0.00    +0.110 C 
ATOM      7  H   LIG    1       -3.168  -3.059   2.791  0.00  0.00    +0.430 HD
ENDBRANCH   1   2
BRANCH   1   8
ATOM      8  C   LIG    1       -3.244  -1.244   0.618  0.00  0.00    +0.050 C 
BRANCH   8   9
ATOM      9  C   LIG    1       -4.420  -0.318   0.934  0.00  0.00    -0.000 C 
BRANCH   9  11
ATOM     10  C   LIG    1       -5.163   2.064   1.063  0.00  0.00    +0.010 C 
ATOM     11  C   LIG    1       -3.987   1.138   0.747  0.00  0.00    +0.010 C 
ENDBRANCH   9  11
ENDBRANCH   8   9
ENDBRANCH   1   8
BRANCH   1  12
ATOM     12  C   LIG    1       -2.541  -3.629   0.371  0.00  0.00    +0.060 C 
BRANCH  12  13
ATOM     13  C   LIG    1       -3.027  -5.080   0.409  0.00  0.00    -0.040 C 
ATOM     14  C   LIG    1       -1.822  -6.022   0.366  0.00  0.00    +0.040 C 
ATOM     15  C   LIG    1       -3.927  -5.348  -0.799  0.00  0.00    +0.030 C 
ENDBRANCH  12  13
ENDBRANCH   1  12
TORSDOF 6
ENDMDL
MODEL      286
REMARK  Name = ZINC001173255032
REMARK                            x       y       z     vdW  Elec       q    Type
REMARK                         _______ _______ _______ _____ _____    ______ ____
ROOT
ATOM      1  C   LIG    1        1.542  -2.427  -2.312  0.00  0.00    +0.170 C 
ENDROOT
BRANCH   1   2
ATOM      2  N   LIG    1        2.969  -2.079  -2.265  0.00  0.00    -0.350 N 
ATOM      3  C   LIG    1        3.623  -2.837  -1.189  0.00  0.00    +0.310 C 
ATOM      4  H   LIG    1        3.068  -1.090  -2.088  0.00  0.00    +0.420 HD
BRANCH   2   5
ATOM      5  C   LIG    1        3.597  -2.412  -3.550  0.00  0.00    +0.090 C 
ATOM      6  C   LIG    1        4.196  -1.262  -4.363  0.00  0.00    +0.100 C 
ATOM      7  C   LIG    1        5.116  -2.258  -3.655  0.00  0.00    +0.100 C 
ENDBRANCH   2   5
ENDBRANCH   1   2
BRANCH   1   8
ATOM      8  C   LIG    1        0.795  -1.667  -1.215  0.00  0.00    +0.050 C 
BRANCH   8   9
ATOM      9  C   LIG    1        0.845  -0.166  -1.510  0.00  0.00    +0.010 C 
BRANCH   9  11
ATOM     10  C   LIG    1        0.039   2.083  -0.781  0.00  0.00    +0.010 C 
ATOM     11  C   LIG    1       -0.011   0.583  -0.486  0.00  0.00    +0.020 C 
ENDBRANCH   9  11
ENDBRANCH   8   9
ENDBRANCH   1   8
BRANCH   1  12
ATOM     12  C   LIG    1        1.378  -3.932  -2.093  0.00  0.00    +0.060 C 
BRANCH  12  13
ATOM     13  C   LIG    1        1.960  -4.689  -3.288  0.00  0.00    -0.050 C 
ATOM     14  C   LIG    1        1.153  -4.357  -4.545  0.00  0.00    +0.020 C 
ATOM     15  C   LIG    1        1.893  -6.194  -3.021  0.00  0.00    +0.040 C 
ENDBRANCH  12  13
ENDBRANCH   1  12
TORSDOF 7
ENDMDL
MODEL      287
REMARK  Name = ZINC001208137673
REMARK                            x       y       z     vdW  Elec       q    Type
REMARK                         _______ _______ _______ _____ _____    ______ ____
ROOT
ATOM      1  N   LIG    1        3.222  -5.606   1.621  0.00  0.00    -0.380 N 
ATOM      2  C   LIG    1        4.184  -6.048   0.603  0.00  0.00    +0.300 C 
ATOM      3  H   LIG    1        2.376  -6.150   1.543  0.00  0.00    +0.420 HD
ENDROOT
BRANCH   1   4
ATOM      4  C   LIG    1        2.912  -4.185   1.418  0.00  0.00    +0.240 C 
BRANCH   4   5
ATOM      5  C   LIG    1        2.133  -4.014   0.113  0.00  0.00    +0.040 C 
BRANCH   5   6
ATOM      6  C   LIG    1        1.810  -2.534  -0.099  0.00  0.00    +0.080 C 
BRANCH   6   8
ATOM      7  C   LIG    1       -0.102  -1.728  -1.385  0.00  0.00    -0.010 C 
ATOM      8  C   LIG    1        1.042  -2.366  -1.384  0.00  0.00    -0.070 C 
BRANCH   7  10
ATOM      9  C   LIG    1       -0.913   0.440  -0.496  0.00  0.00    +0.030 C 
ATOM     10  C   LIG    1       -0.564  -1.008  -0.145  0.00  0.00    +0.030 C 
ENDBRANCH   7  10
ENDBRANCH   6   8
ENDBRANCH   5   6
ENDBRANCH   4   5
ENDBRANCH   1   4
BRANCH   1  11
ATOM     11  C   LIG    1        3.803  -5.795   2.958  0.00  0.00    +0.160 C 
BRANCH  11  12
ATOM     12  C   LIG    1        2.679  -5.895   3.992  0.00  0.00    +0.050 C 
ATOM     13  C   LIG    1        1.840  -7.144   3.714  0.00  0.00    +0.030 C 
ENDBRANCH  11  12
BRANCH  11  14
ATOM     14  C   LIG    1        4.702  -4.605   3.296  0.00  0.00    +0.050 C 
ATOM     15  C   LIG    1        5.923  -4.610   2.374  0.00  0.00    +0.030 C 
ENDBRANCH  11  14
ENDBRANCH   1  11
TORSDOF 8
ENDMDL
MODEL      288
REMARK  Name = ZINC001173255155
REMARK                            x       y       z     vdW  Elec       q    Type
REMARK                         _______ _______ _______ _____ _____    ______ ____
ROOT
ATOM      1  C   LIG    1       -2.680  -2.526   0.118  0.00  0.00    +0.160 C 
ENDROOT
BRANCH   1   2
ATOM      2  N   LIG    1       -3.182  -2.531  -1.262  0.00  0.00    -0.380 N 
ATOM      3  C   LIG    1       -2.325  -3.390  -2.092  0.00  0.00    +0.310 C 
ATOM      4  H   LIG    1       -3.169  -1.591  -1.628  0.00  0.00    +0.420 HD
BRANCH   2   5
ATOM      5  C   LIG    1       -4.557  -3.046  -1.282  0.00  0.00    +0.150 C 
ATOM      6  C   LIG    1       -5.080  -3.051  -2.720  0.00  0.00    +0.090 C 
ATOM      7  C   LIG    1       -5.449  -2.151  -0.419  0.00  0.00    +0.080 C 
ENDBRANCH   2   5
ENDBRANCH   1   2
BRANCH   1   8
ATOM      8  C   LIG    1       -1.854  -1.260   0.356  0.00  0.00    +0.060 C 
BRANCH   8   9
ATOM      9  C   LIG    1       -2.765  -0.034   0.268  0.00  0.00    +0.010 C 
BRANCH   9  11
ATOM     10  C   LIG    1       -2.880   2.446   0.552  0.00  0.00    +0.010 C 
ATOM     11  C   LIG    1       -1.970   1.219   0.641  0.00  0.00    +0.010 C 
ENDBRANCH   9  11
ENDBRANCH   8   9
ENDBRANCH   1   8
BRANCH   1  12
ATOM     12  C   LIG    1       -1.801  -3.758   0.346  0.00  0.00    +0.060 C 
BRANCH  12  13
ATOM     13  C   LIG    1       -2.680  -5.010   0.387  0.00  0.00    -0.040 C 
ATOM     14  C   LIG    1       -3.753  -4.845   1.465  0.00  0.00    +0.020 C 
ATOM     15  C   LIG    1       -1.814  -6.230   0.711  0.00  0.00    +0.050 C 
ENDBRANCH  12  13
ENDBRANCH   1  12
TORSDOF 7
ENDMDL
MODEL      289
REMARK  Name = ZINC001173258442
REMARK                            x       y       z     vdW  Elec       q    Type
REMARK                         _______ _______ _______ _____ _____    ______ ____
ROOT
ATOM      1  C   LIG    1       -2.826  -2.239  -0.728  0.00  0.00    +0.160 C 
ENDROOT
BRANCH   1   2
ATOM      2  N   LIG    1       -3.766  -2.493  -1.827  0.00  0.00    -0.410 N 
ATOM      3  C   LIG    1       -3.503  -3.754  -2.544  0.00  0.00    +0.280 C 
ATOM      4  C   LIG    1       -5.022  -3.949  -2.646  0.00  0.00    +0.090 C 
ATOM      5  C   LIG    1       -5.045  -3.076  -1.382  0.00  0.00    +0.190 C 
ATOM      6  C   LIG    1       -6.200  -2.072  -1.355  0.00  0.00    +0.090 C 
ATOM      7  H   LIG    1       -3.879  -1.699  -2.440  0.00  0.00    +0.430 HD
ENDBRANCH   1   2
BRANCH   1   8
ATOM      8  C   LIG    1       -1.542  -1.623  -1.287  0.00  0.00    +0.060 C 
BRANCH   8   9
ATOM      9  C   LIG    1       -1.854  -0.253  -1.891  0.00  0.00    +0.010 C 
BRANCH   9  11
ATOM     10  C   LIG    1       -0.865   1.788  -2.939  0.00  0.00    +0.010 C 
ATOM     11  C   LIG    1       -0.552   0.418  -2.334  0.00  0.00    +0.020 C 
ENDBRANCH   9  11
ENDBRANCH   8   9
ENDBRANCH   1   8
BRANCH   1  12
ATOM     12  C   LIG    1       -2.495  -3.557  -0.025  0.00  0.00    +0.040 C 
BRANCH  12  13
ATOM     13  C   LIG    1       -1.645  -3.274   1.215  0.00  0.00    -0.010 C 
ATOM     14  C   LIG    1       -1.199  -4.598   1.841  0.00  0.00    +0.040 C 
ATOM     15  C   LIG    1       -2.471  -2.483   2.231  0.00  0.00    +0.020 C 
ENDBRANCH  12  13
ENDBRANCH   1  12
TORSDOF 6
ENDMDL
MODEL      290
REMARK  Name = ZINC001208132918
REMARK                            x       y       z     vdW  Elec       q    Type
REMARK                         _______ _______ _______ _____ _____    ______ ____
ROOT
ATOM      1  N   LIG    1        3.228  -5.109   1.542  0.00  0.00    -0.390 N 
ATOM      2  C   LIG    1        4.368  -5.403   0.647  0.00  0.00    +0.250 C 
ATOM      3  C   LIG    1        5.109  -6.583   1.325  0.00  0.00    +0.080 C 
ATOM      4  C   LIG    1        4.964  -6.223   2.827  0.00  0.00    +0.080 C 
ATOM      5  C   LIG    1        3.564  -5.584   2.897  0.00  0.00    +0.050 C 
ATOM      6  C   LIG    1        2.538  -6.626   3.348  0.00  0.00    +0.100 C 
ATOM      7  C   LIG    1        3.578  -4.406   3.873  0.00  0.00    +0.090 C 
ATOM      8  H   LIG    1        2.404  -5.587   1.209  0.00  0.00    +0.420 HD
ENDROOT
BRANCH   1   9
ATOM      9  C   LIG    1        2.983  -3.661   1.571  0.00  0.00    +0.250 C 
BRANCH   9  10
ATOM     10  C   LIG    1        2.507  -3.196   0.194  0.00  0.00    +0.040 C 
BRANCH  10  11
ATOM     11  C   LIG    1        2.252  -1.688   0.225  0.00  0.00    +0.080 C 
BRANCH  11  13
ATOM     12  C   LIG    1        0.669  -0.551  -1.245  0.00  0.00    -0.010 C 
ATOM     13  C   LIG    1        1.784  -1.229  -1.132  0.00  0.00    -0.070 C 
BRANCH  12  15
ATOM     14  C   LIG    1       -0.328   1.420  -0.117  0.00  0.00    +0.030 C 
ATOM     15  C   LIG    1       -0.057  -0.082  -0.010  0.00  0.00    +0.030 C 
ENDBRANCH  12  15
ENDBRANCH  11  13
ENDBRANCH  10  11
ENDBRANCH   9  10
ENDBRANCH   1   9
TORSDOF 5
ENDMDL
MODEL      291
REMARK  Name = ZINC001208136015
REMARK                            x       y       z     vdW  Elec       q    Type
REMARK                         _______ _______ _______ _____ _____    ______ ____
ROOT
ATOM      1  N   LIG    1       -2.845  -5.207   1.837  0.00  0.00    -0.390 N 
ATOM      2  C   LIG    1       -2.453  -5.494   3.233  0.00  0.00    +0.250 C 
ATOM      3  C   LIG    1       -3.376  -6.659   3.671  0.00  0.00    +0.080 C 
ATOM      4  C   LIG    1       -4.706  -6.287   2.964  0.00  0.00    +0.070 C 
ATOM      5  C   LIG    1       -4.232  -5.665   1.637  0.00  0.00    +0.160 C 
ATOM      6  H   LIG    1       -2.231  -5.697   1.204  0.00  0.00    +0.430 HD
ENDROOT
BRANCH   5   7
ATOM      7  C   LIG    1       -5.127  -4.481   1.268  0.00  0.00    +0.040 C 
ATOM      8  C   LIG    1       -6.554  -4.976   1.027  0.00  0.00    +0.060 C 
ENDBRANCH   5   7
BRANCH   1   9
ATOM      9  C   LIG    1       -2.761  -3.761   1.587  0.00  0.00    +0.240 C 
BRANCH   9  10
ATOM     10  C   LIG    1       -1.300  -3.314   1.668  0.00  0.00    +0.040 C 
BRANCH  10  11
ATOM     11  C   LIG    1       -1.212  -1.809   1.408  0.00  0.00    +0.070 C 
BRANCH  11  13
ATOM     12  C   LIG    1        0.761  -0.696   0.497  0.00  0.00    -0.010 C 
ATOM     13  C   LIG    1        0.227  -1.368   1.487  0.00  0.00    -0.070 C 
BRANCH  12  15
ATOM     14  C   LIG    1        0.103   1.266  -0.868  0.00  0.00    +0.030 C 
ATOM     15  C   LIG    1       -0.098  -0.235  -0.651  0.00  0.00    +0.030 C 
ENDBRANCH  12  15
ENDBRANCH  11  13
ENDBRANCH  10  11
ENDBRANCH   9  10
ENDBRANCH   1   9
TORSDOF 6
ENDMDL
MODEL      292
REMARK  Name = ZINC001173255033
REMARK                            x       y       z     vdW  Elec       q    Type
REMARK                         _______ _______ _______ _____ _____    ______ ____
ROOT
ATOM      1  C   LIG    1        1.247  -2.481  -2.570  0.00  0.00    +0.170 C 
ENDROOT
BRANCH   1   2
ATOM      2  N   LIG    1        0.555  -2.173  -3.829  0.00  0.00    -0.360 N 
ATOM      3  C   LIG    1        1.375  -2.625  -4.961  0.00  0.00    +0.320 C 
ATOM      4  H   LIG    1        0.407  -1.178  -3.897  0.00  0.00    +0.420 HD
BRANCH   2   5
ATOM      5  C   LIG    1       -0.741  -2.864  -3.856  0.00  0.00    +0.090 C 
ATOM      6  C   LIG    1       -2.003  -1.999  -3.861  0.00  0.00    +0.100 C 
ATOM      7  C   LIG    1       -1.579  -2.742  -5.130  0.00  0.00    +0.100 C 
ENDBRANCH   2   5
ENDBRANCH   1   2
BRANCH   1   8
ATOM      8  C   LIG    1        0.409  -1.979  -1.392  0.00  0.00    +0.050 C 
BRANCH   8   9
ATOM      9  C   LIG    1        0.307  -0.453  -1.452  0.00  0.00    +0.000 C 
BRANCH   9  11
ATOM     10  C   LIG    1       -0.718   1.566  -0.396  0.00  0.00    +0.010 C 
ATOM     11  C   LIG    1       -0.617   0.040  -0.336  0.00  0.00    +0.020 C 
ENDBRANCH   9  11
ENDBRANCH   8   9
ENDBRANCH   1   8
BRANCH   1  12
ATOM     12  C   LIG    1        1.440  -3.994  -2.450  0.00  0.00    +0.040 C 
BRANCH  12  13
ATOM     13  C   LIG    1        2.294  -4.303  -1.218  0.00  0.00    -0.010 C 
ATOM     14  C   LIG    1        3.703  -3.740  -1.420  0.00  0.00    +0.020 C 
ATOM     15  C   LIG    1        2.374  -5.818  -1.021  0.00  0.00    +0.040 C 
ENDBRANCH  12  13
ENDBRANCH   1  12
TORSDOF 7
ENDMDL
MODEL      293
REMARK  Name = ZINC001173258440
REMARK                            x       y       z     vdW  Elec       q    Type
REMARK                         _______ _______ _______ _____ _____    ______ ____
ROOT
ATOM      1  C   LIG    1       -3.433  -2.179   0.610  0.00  0.00    +0.160 C 
ENDROOT
BRANCH   1   2
ATOM      2  N   LIG    1       -3.725  -2.029  -0.822  0.00  0.00    -0.410 N 
ATOM      3  C   LIG    1       -2.770  -2.740  -1.692  0.00  0.00    +0.270 C 
ATOM      4  C   LIG    1       -3.953  -3.104  -2.600  0.00  0.00    +0.090 C 
ATOM      5  C   LIG    1       -4.769  -2.950  -1.307  0.00  0.00    +0.170 C 
ATOM      6  C   LIG    1       -4.870  -4.242  -0.493  0.00  0.00    +0.110 C 
ATOM      7  H   LIG    1       -3.878  -1.069  -1.093  0.00  0.00    +0.430 HD
ENDBRANCH   1   2
BRANCH   1   8
ATOM      8  C   LIG    1       -2.717  -0.926   1.119  0.00  0.00    +0.050 C 
BRANCH   8   9
ATOM      9  C   LIG    1       -3.652   0.279   1.000  0.00  0.00    +0.010 C 
BRANCH   9  11
ATOM     10  C   LIG    1       -3.920   2.710   1.509  0.00  0.00    +0.010 C 
ATOM     11  C   LIG    1       -2.985   1.505   1.627  0.00  0.00    +0.020 C 
ENDBRANCH   9  11
ENDBRANCH   8   9
ENDBRANCH   1   8
BRANCH   1  12
ATOM     12  C   LIG    1       -2.536  -3.401   0.823  0.00  0.00    +0.030 C 
BRANCH  12  13
ATOM     13  C   LIG    1       -2.231  -3.556   2.314  0.00  0.00    -0.010 C 
ATOM     14  C   LIG    1       -1.233  -4.699   2.514  0.00  0.00    +0.040 C 
ATOM     15  C   LIG    1       -3.523  -3.869   3.070  0.00  0.00    +0.020 C 
ENDBRANCH  12  13
ENDBRANCH   1  12
TORSDOF 6
ENDMDL
MODEL      294
REMARK  Name = ZINC000393577769
REMARK                            x       y       z     vdW  Elec       q    Type
REMARK                         _______ _______ _______ _____ _____    ______ ____
ROOT
ATOM      1  N   LIG    1        0.738  -1.966  -1.265  0.00  0.00    -0.380 N 
ATOM      2  C   LIG    1       -0.640  -2.475  -1.254  0.00  0.00    +0.320 C 
ATOM      3  H   LIG    1        1.226  -2.301  -0.447  0.00  0.00    +0.420 HD
ENDROOT
BRANCH   1   4
ATOM      4  C   LIG    1        0.718  -0.497  -1.257  0.00  0.00    +0.050 C 
ATOM      5  C   LIG    1        2.154   0.032  -1.268  0.00  0.00    +0.090 C 
ATOM      6  C   LIG    1       -0.022   0.009  -2.496  0.00  0.00    +0.090 C 
BRANCH   4   8
ATOM      7  C   LIG    1       -0.019   1.526   0.010  0.00  0.00    +0.060 C 
ATOM      8  C   LIG    1        0.002  -0.004   0.002  0.00  0.00    +0.040 C 
ENDBRANCH   4   8
ENDBRANCH   1   4
BRANCH   1   9
ATOM      9  C   LIG    1        1.426  -2.440  -2.474  0.00  0.00    +0.240 C 
BRANCH   9  10
ATOM     10  C   LIG    1        1.557  -3.964  -2.422  0.00  0.00    +0.030 C 
BRANCH  10  11
ATOM     11  C   LIG    1        2.273  -4.457  -3.680  0.00  0.00    +0.030 C 
BRANCH  11  12
ATOM     12  C   LIG    1        2.404  -5.981  -3.629  0.00  0.00    -0.030 C 
ATOM     13  C   LIG    1        3.228  -6.462  -4.824  0.00  0.00    +0.030 C 
ATOM     14  C   LIG    1        1.012  -6.614  -3.680  0.00  0.00    +0.020 C 
ENDBRANCH  11  12
ENDBRANCH  10  11
ENDBRANCH   9  10
ENDBRANCH   1   9
TORSDOF 6
ENDMDL
MODEL      295
REMARK  Name = ZINC000621292799
REMARK                            x       y       z     vdW  Elec       q    Type
REMARK                         _______ _______ _______ _____ _____    ______ ____
ROOT
ATOM      1  N   LIG    1       -1.406  -1.980  -0.112  0.00  0.00    -0.380 N 
ATOM      2  H   LIG    1       -0.801  -2.213  -0.885  0.00  0.00    +0.420 HD
ENDROOT
BRANCH   1   3
ATOM      3  C   LIG    1       -2.758  -2.489  -0.377  0.00  0.00    +0.150 C 
ATOM      4  C   LIG    1       -3.279  -1.961  -1.737  0.00  0.00    +0.040 C 
ATOM      5  C   LIG    1       -4.348  -3.013  -2.125  0.00  0.00    +0.050 C 
ATOM      6  C   LIG    1       -3.745  -4.354  -1.662  0.00  0.00    +0.030 C 
ATOM      7  C   LIG    1       -2.734  -4.022  -0.550  0.00  0.00    +0.030 C 
ENDBRANCH   1   3
BRANCH   1   8
ATOM      8  C   LIG    1       -1.455  -0.520   0.049  0.00  0.00    +0.240 C 
BRANCH   8  10
ATOM      9  C   LIG    1       -0.073   1.555   0.208  0.00  0.00    +0.060 C 
ATOM     10  C   LIG    1       -0.033   0.026   0.186  0.00  0.00    +0.020 C 
ENDBRANCH   8  10
ENDBRANCH   1   8
BRANCH   1  11
ATOM     11  C   LIG    1       -0.886  -2.591   1.119  0.00  0.00    +0.240 C 
BRANCH  11  12
ATOM     12  C   LIG    1       -1.841  -2.298   2.277  0.00  0.00    +0.040 C 
BRANCH  12  13
ATOM     13  C   LIG    1       -1.354  -3.020   3.535  0.00  0.00    -0.010 C 
ATOM     14  C   LIG    1       -2.373  -2.829   4.660  0.00  0.00    +0.040 C 
ATOM     15  C   LIG    1       -0.005  -2.441   3.966  0.00  0.00    +0.020 C 
ENDBRANCH  12  13
ENDBRANCH  11  12
ENDBRANCH   1  11
TORSDOF 6
ENDMDL
MODEL      296
REMARK  Name = ZINC000621314537
REMARK                            x       y       z     vdW  Elec       q    Type
REMARK                         _______ _______ _______ _____ _____    ______ ____
ROOT
ATOM      1  N   LIG    1       -2.654  -2.434   0.168  0.00  0.00    -0.380 N 
ATOM      2  H   LIG    1       -3.104  -2.030  -0.640  0.00  0.00    +0.420 HD
ENDROOT
BRANCH   1   3
ATOM      3  C   LIG    1       -3.380  -2.038   1.382  0.00  0.00    +0.150 C 
ATOM      4  C   LIG    1       -4.843  -2.546   1.329  0.00  0.00    +0.050 C 
ATOM      5  C   LIG    1       -5.241  -2.600   2.825  0.00  0.00    +0.050 C 
ATOM      6  C   LIG    1       -3.965  -3.095   3.538  0.00  0.00    +0.030 C 
ATOM      7  C   LIG    1       -2.783  -2.738   2.621  0.00  0.00    +0.040 C 
ENDBRANCH   1   3
BRANCH   1   8
ATOM      8  C   LIG    1       -1.268  -1.953   0.248  0.00  0.00    +0.240 C 
BRANCH   8   9
ATOM      9  C   LIG    1       -1.256  -0.424   0.210  0.00  0.00    +0.020 C 
BRANCH   9  11
ATOM     10  C   LIG    1        0.190   1.609   0.348  0.00  0.00    +0.030 C 
ATOM     11  C   LIG    1        0.178   0.079   0.386  0.00  0.00    +0.020 C 
ENDBRANCH   9  11
ENDBRANCH   8   9
ENDBRANCH   1   8
BRANCH   1  12
ATOM     12  C   LIG    1       -2.659  -3.898   0.050  0.00  0.00    +0.250 C 
BRANCH  12  13
ATOM     13  C   LIG    1       -2.034  -4.304  -1.287  0.00  0.00    -0.030 C 
ATOM     14  C   LIG    1       -2.894  -3.770  -2.434  0.00  0.00    +0.030 C 
ATOM     15  C   LIG    1       -1.959  -5.830  -1.372  0.00  0.00    +0.070 C 
ENDBRANCH  12  13
ENDBRANCH   1  12
TORSDOF 6
ENDMDL
MODEL      297
REMARK  Name = ZINC001173258443
REMARK                            x       y       z     vdW  Elec       q    Type
REMARK                         _______ _______ _______ _____ _____    ______ ____
ROOT
ATOM      1  C   LIG    1       -2.610  -2.446   0.081  0.00  0.00    +0.160 C 
ENDROOT
BRANCH   1   2
ATOM      2  N   LIG    1       -3.107  -1.993   1.387  0.00  0.00    -0.410 N 
ATOM      3  C   LIG    1       -3.807  -0.696   1.331  0.00  0.00    +0.290 C 
ATOM      4  C   LIG    1       -4.801  -1.250   2.361  0.00  0.00    +0.090 C 
ATOM      5  C   LIG    1       -4.392  -2.608   1.770  0.00  0.00    +0.190 C 
ATOM      6  C   LIG    1       -4.254  -3.713   2.820  0.00  0.00    +0.090 C 
ATOM      7  H   LIG    1       -2.408  -2.041   2.113  0.00  0.00    +0.430 HD
ENDBRANCH   1   2
BRANCH   1   8
ATOM      8  C   LIG    1       -1.316  -1.703  -0.257  0.00  0.00    +0.050 C 
BRANCH   8   9
ATOM      9  C   LIG    1       -1.614  -0.212  -0.431  0.00  0.00    -0.000 C 
BRANCH   9  11
ATOM     10  C   LIG    1       -0.619   2.021  -0.944  0.00  0.00    +0.010 C 
ATOM     11  C   LIG    1       -0.320   0.530  -0.769  0.00  0.00    +0.010 C 
ENDBRANCH   9  11
ENDBRANCH   8   9
ENDBRANCH   1   8
BRANCH   1  12
ATOM     12  C   LIG    1       -2.335  -3.950   0.134  0.00  0.00    +0.050 C 
BRANCH  12  13
ATOM     13  C   LIG    1       -3.654  -4.714  -0.002  0.00  0.00    -0.040 C 
ATOM     14  C   LIG    1       -3.392  -6.214   0.147  0.00  0.00    +0.040 C 
ATOM     15  C   LIG    1       -4.264  -4.437  -1.378  0.00  0.00    +0.030 C 
ENDBRANCH  12  13
ENDBRANCH   1  12
TORSDOF 6
ENDMDL
MODEL      298
REMARK  Name = ZINC001173255493
REMARK                            x       y       z     vdW  Elec       q    Type
REMARK                         _______ _______ _______ _____ _____    ______ ____
ROOT
ATOM      1  C   LIG    1        1.396  -2.435  -2.644  0.00  0.00    +0.160 C 
ENDROOT
BRANCH   1   2
ATOM      2  N   LIG    1        2.834  -2.258  -2.403  0.00  0.00    -0.380 N 
ATOM      3  C   LIG    1        3.203  -2.912  -1.141  0.00  0.00    +0.310 C 
ATOM      4  H   LIG    1        3.047  -1.273  -2.346  0.00  0.00    +0.420 HD
BRANCH   2   5
ATOM      5  C   LIG    1        3.594  -2.861  -3.507  0.00  0.00    +0.250 C 
BRANCH   5   6
ATOM      6  C   LIG    1        5.080  -2.537  -3.340  0.00  0.00    +0.020 C 
ATOM      7  C   LIG    1        5.871  -3.164  -4.489  0.00  0.00    +0.060 C 
ENDBRANCH   5   6
ENDBRANCH   2   5
ENDBRANCH   1   2
BRANCH   1   8
ATOM      8  C   LIG    1        0.603  -1.681  -1.575  0.00  0.00    +0.050 C 
BRANCH   8   9
ATOM      9  C   LIG    1        0.910  -0.185  -1.673  0.00  0.00    -0.000 C 
BRANCH   9  11
ATOM     10  C   LIG    1        0.327   2.079  -0.790  0.00  0.00    +0.010 C 
ATOM     11  C   LIG    1        0.021   0.583  -0.692  0.00  0.00    +0.020 C 
ENDBRANCH   9  11
ENDBRANCH   8   9
ENDBRANCH   1   8
BRANCH   1  12
ATOM     12  C   LIG    1        1.048  -3.924  -2.583  0.00  0.00    +0.040 C 
BRANCH  12  13
ATOM     13  C   LIG    1       -0.422  -4.119  -2.957  0.00  0.00    -0.010 C 
ATOM     14  C   LIG    1       -0.808  -5.587  -2.761  0.00  0.00    +0.040 C 
ATOM     15  C   LIG    1       -0.632  -3.728  -4.421  0.00  0.00    +0.020 C 
ENDBRANCH  12  13
ENDBRANCH   1  12
TORSDOF 8
ENDMDL
MODEL      299
REMARK  Name = ZINC001173258079
REMARK                            x       y       z     vdW  Elec       q    Type
REMARK                         _______ _______ _______ _____ _____    ______ ____
ROOT
ATOM      1  C   LIG    1        1.568  -2.280   2.415  0.00  0.00    +0.150 C 
ENDROOT
BRANCH   1   2
ATOM      2  N   LIG    1        0.723  -1.849   3.537  0.00  0.00    -0.380 N 
ATOM      3  C   LIG    1       -0.608  -2.457   3.411  0.00  0.00    +0.310 C 
ATOM      4  H   LIG    1        0.636  -0.844   3.526  0.00  0.00    +0.420 HD
BRANCH   2   5
ATOM      5  C   LIG    1        1.337  -2.272   4.803  0.00  0.00    +0.230 C 
ATOM      6  C   LIG    1        2.646  -1.510   5.015  0.00  0.00    +0.080 C 
ENDBRANCH   2   5
ENDBRANCH   1   2
BRANCH   1   7
ATOM      7  C   LIG    1        1.404  -1.303   1.249  0.00  0.00    +0.060 C 
BRANCH   7   8
ATOM      8  C   LIG    1        1.931   0.074   1.660  0.00  0.00    +0.010 C 
BRANCH   8  10
ATOM      9  C   LIG    1        2.414   2.393   0.866  0.00  0.00    +0.010 C 
ATOM     10  C   LIG    1        1.888   1.016   0.455  0.00  0.00    +0.020 C 
ENDBRANCH   8  10
ENDBRANCH   7   8
ENDBRANCH   1   7
BRANCH   1  11
ATOM     11  C   LIG    1        1.146  -3.682   1.969  0.00  0.00    +0.060 C 
BRANCH  11  12
ATOM     12  C   LIG    1        1.427  -4.681   3.094  0.00  0.00    -0.050 C 
ATOM     13  C   LIG    1        2.916  -4.649   3.444  0.00  0.00    +0.030 C 
ATOM     14  C   LIG    1        1.041  -6.088   2.634  0.00  0.00    +0.050 C 
ENDBRANCH  11  12
ENDBRANCH   1  11
TORSDOF 7
ENDMDL
MODEL      300
REMARK  Name = ZINC001173255494
REMARK                            x       y       z     vdW  Elec       q    Type
REMARK                         _______ _______ _______ _____ _____    ______ ____
ROOT
ATOM      1  C   LIG    1        1.522  -2.692  -2.804  0.00  0.00    +0.160 C 
ENDROOT
BRANCH   1   2
ATOM      2  N   LIG    1        0.898  -1.923  -3.889  0.00  0.00    -0.380 N 
ATOM      3  C   LIG    1       -0.560  -2.100  -3.839  0.00  0.00    +0.330 C 
ATOM      4  H   LIG    1        1.246  -2.251  -4.777  0.00  0.00    +0.420 HD
BRANCH   2   5
ATOM      5  C   LIG    1        1.224  -0.499  -3.731  0.00  0.00    +0.250 C 
BRANCH   5   6
ATOM      6  C   LIG    1        0.776   0.268  -4.976  0.00  0.00    +0.020 C 
ATOM      7  C   LIG    1        1.115   1.750  -4.811  0.00  0.00    +0.060 C 
ENDBRANCH   5   6
ENDBRANCH   2   5
ENDBRANCH   1   2
BRANCH   1   8
ATOM      8  C   LIG    1        0.917  -2.266  -1.464  0.00  0.00    +0.050 C 
BRANCH   8   9
ATOM      9  C   LIG    1        1.671  -1.047  -0.929  0.00  0.00    +0.010 C 
BRANCH   9  11
ATOM     10  C   LIG    1        1.929   0.499   1.017  0.00  0.00    +0.010 C 
ATOM     11  C   LIG    1        1.175  -0.720   0.482  0.00  0.00    +0.000 C 
ENDBRANCH   9  11
ENDBRANCH   8   9
ENDBRANCH   1   8
BRANCH   1  12
ATOM     12  C   LIG    1        1.269  -4.185  -3.026  0.00  0.00    +0.060 C 
BRANCH  12  13
ATOM     13  C   LIG    1        1.952  -4.630  -4.321  0.00  0.00    -0.040 C 
ATOM     14  C   LIG    1        1.588  -6.087  -4.614  0.00  0.00    +0.050 C 
ATOM     15  C   LIG    1        3.469  -4.504  -4.167  0.00  0.00    +0.030 C 
ENDBRANCH  12  13
ENDBRANCH   1  12
TORSDOF 8
ENDMDL
MODEL      301
REMARK  Name = ZINC001173258083
REMARK                            x       y       z     vdW  Elec       q    Type
REMARK                         _______ _______ _______ _____ _____    ______ ____
ROOT
ATOM      1  C   LIG    1        1.628  -2.542   2.644  0.00  0.00    +0.150 C 
ENDROOT
BRANCH   1   2
ATOM      2  N   LIG    1        2.993  -2.087   2.347  0.00  0.00    -0.380 N 
ATOM      3  C   LIG    1        3.527  -2.848   1.210  0.00  0.00    +0.310 C 
ATOM      4  H   LIG    1        3.579  -2.233   3.155  0.00  0.00    +0.420 HD
BRANCH   2   5
ATOM      5  C   LIG    1        2.970  -0.657   2.011  0.00  0.00    +0.240 C 
ATOM      6  C   LIG    1        2.574   0.152   3.248  0.00  0.00    +0.080 C 
ENDBRANCH   2   5
ENDBRANCH   1   2
BRANCH   1   7
ATOM      7  C   LIG    1        0.948  -2.994   1.350  0.00  0.00    +0.050 C 
BRANCH   7   8
ATOM      8  C   LIG    1        0.764  -1.790   0.424  0.00  0.00    +0.010 C 
BRANCH   8  10
ATOM      9  C   LIG    1       -0.221  -1.010  -1.736  0.00  0.00    +0.010 C 
ATOM     10  C   LIG    1       -0.036  -2.214  -0.810  0.00  0.00    +0.010 C 
ENDBRANCH   8  10
ENDBRANCH   7   8
ENDBRANCH   1   7
BRANCH   1  11
ATOM     11  C   LIG    1        1.684  -3.713   3.627  0.00  0.00    +0.040 C 
BRANCH  11  12
ATOM     12  C   LIG    1        0.262  -4.117   4.020  0.00  0.00    -0.010 C 
ATOM     13  C   LIG    1       -0.389  -2.983   4.815  0.00  0.00    +0.020 C 
ATOM     14  C   LIG    1        0.310  -5.381   4.881  0.00  0.00    +0.040 C 
ENDBRANCH  11  12
ENDBRANCH   1  11
TORSDOF 7
ENDMDL
MODEL      302
REMARK  Name = ZINC000621732963
REMARK                            x       y       z     vdW  Elec       q    Type
REMARK                         _______ _______ _______ _____ _____    ______ ____
ROOT
ATOM      1  N   LIG    1        0.610  -1.877  -1.076  0.00  0.00    -0.390 N 
ATOM      2  H   LIG    1        0.880  -2.260  -0.183  0.00  0.00    +0.420 HD
ENDROOT
BRANCH   1   3
ATOM      3  C   LIG    1        0.699  -0.411  -1.026  0.00  0.00    +0.240 C 
BRANCH   3   5
ATOM      4  C   LIG    1       -0.049   1.637   0.193  0.00  0.00    +0.060 C 
ATOM      5  C   LIG    1       -0.141   0.111   0.141  0.00  0.00    +0.020 C 
ENDBRANCH   3   5
ENDBRANCH   1   3
BRANCH   1   6
ATOM      6  C   LIG    1        1.510  -2.386  -2.120  0.00  0.00    +0.250 C 
BRANCH   6   7
ATOM      7  C   LIG    1        2.960  -2.097  -1.728  0.00  0.00    -0.020 C 
ATOM      8  C   LIG    1        3.373  -2.953  -0.505  0.00  0.00    +0.010 C 
ATOM      9  C   LIG    1        4.916  -3.011  -0.633  0.00  0.00    +0.030 C 
ATOM     10  C   LIG    1        5.165  -3.129  -2.151  0.00  0.00    +0.010 C 
ATOM     11  C   LIG    1        3.922  -2.548  -2.848  0.00  0.00    +0.040 C 
ENDBRANCH   6   7
ENDBRANCH   1   6
BRANCH   1  12
ATOM     12  C   LIG    1       -0.770  -2.273  -1.383  0.00  0.00    +0.250 C 
BRANCH  12  13
ATOM     13  C   LIG    1       -0.896  -3.796  -1.291  0.00  0.00    -0.030 C 
ATOM     14  C   LIG    1       -2.309  -4.217  -1.700  0.00  0.00    +0.070 C 
ATOM     15  C   LIG    1       -0.627  -4.243   0.148  0.00  0.00    +0.030 C 
ENDBRANCH  12  13
ENDBRANCH   1  12
TORSDOF 6
ENDMDL
MODEL      303
REMARK  Name = ZINC001208655665
REMARK                            x       y       z     vdW  Elec       q    Type
REMARK                         _______ _______ _______ _____ _____    ______ ____
ROOT
ATOM      1  C   LIG    1        1.469  -0.490  -1.066  0.00  0.00    +0.030 C 
ENDROOT
BRANCH   1   3
ATOM      2  C   LIG    1        0.991   1.668   0.099  0.00  0.00    +0.020 C 
ATOM      3  C   LIG    1        0.715   0.163   0.094  0.00  0.00    +0.000 C 
BRANCH   3   4
ATOM      4  C   LIG    1        1.186  -0.447   1.416  0.00  0.00    +0.020 C 
BRANCH   4   5
ATOM      5  C   LIG    1        0.116  -0.231   2.488  0.00  0.00    -0.070 C 
ATOM      6  C   LIG    1       -0.223   1.258   2.578  0.00  0.00    +0.030 C 
ATOM      7  C   LIG    1        0.642  -0.717   3.840  0.00  0.00    +0.030 C 
ATOM      8  C   LIG    1       -1.142  -1.019   2.117  0.00  0.00    +0.010 C 
ENDBRANCH   4   5
ENDBRANCH   3   4
ENDBRANCH   1   3
BRANCH   1   9
ATOM      9  C   LIG    1        0.910   0.028  -2.393  0.00  0.00    +0.250 C 
BRANCH   9  10
ATOM     10  N   LIG    1        1.634  -0.599  -3.507  0.00  0.00    -0.360 N 
ATOM     11  C   LIG    1        1.369  -2.044  -3.512  0.00  0.00    +0.310 C 
ATOM     12  H   LIG    1        2.624  -0.439  -3.397  0.00  0.00    +0.420 HD
BRANCH  10  13
ATOM     13  C   LIG    1        1.181  -0.014  -4.776  0.00  0.00    +0.090 C 
ATOM     14  C   LIG    1        2.175   0.858  -5.547  0.00  0.00    +0.100 C 
ATOM     15  C   LIG    1        1.821  -0.538  -6.064  0.00  0.00    +0.100 C 
ENDBRANCH  10  13
ENDBRANCH   9  10
ENDBRANCH   1   9
TORSDOF 6
ENDMDL
MODEL      304
REMARK  Name = ZINC001208190332
REMARK                            x       y       z     vdW  Elec       q    Type
REMARK                         _______ _______ _______ _____ _____    ______ ____
ROOT
ATOM      1  C   LIG    1        3.238  -5.170   1.540  0.00  0.00    +0.020 C 
ENDROOT
BRANCH   1   2
ATOM      2  C   LIG    1        2.983  -3.661   1.571  0.00  0.00    +0.020 C 
BRANCH   2   3
ATOM      3  C   LIG    1        2.507  -3.196   0.194  0.00  0.00    +0.030 C 
BRANCH   3   4
ATOM      4  C   LIG    1        2.252  -1.688   0.225  0.00  0.00    +0.050 C 
BRANCH   4   6
ATOM      5  C   LIG    1        0.669  -0.551  -1.245  0.00  0.00    -0.040 C 
ATOM      6  C   LIG    1        1.784  -1.229  -1.132  0.00  0.00    -0.060 C 
BRANCH   5   8
ATOM      7  C   LIG    1       -0.328   1.420  -0.117  0.00  0.00    +0.030 C 
ATOM      8  C   LIG    1       -0.057  -0.082  -0.010  0.00  0.00    +0.030 C 
ENDBRANCH   5   8
ENDBRANCH   4   6
ENDBRANCH   3   4
ENDBRANCH   2   3
ENDBRANCH   1   2
BRANCH   1   9
ATOM      9  C   LIG    1        3.714  -5.635   2.918  0.00  0.00    +0.250 C 
BRANCH   9  10
ATOM     10  N   LIG    1        3.959  -7.083   2.888  0.00  0.00    -0.410 N 
ATOM     11  C   LIG    1        5.307  -7.440   2.410  0.00  0.00    +0.290 C 
ATOM     12  C   LIG    1        5.325  -8.557   3.463  0.00  0.00    +0.090 C 
ATOM     13  C   LIG    1        4.335  -7.641   4.200  0.00  0.00    +0.190 C 
ATOM     14  C   LIG    1        3.201  -8.401   4.891  0.00  0.00    +0.090 C 
ATOM     15  H   LIG    1        3.221  -7.597   2.430  0.00  0.00    +0.430 HD
ENDBRANCH   9  10
ENDBRANCH   1   9
TORSDOF 7
ENDMDL
MODEL      305
REMARK  Name = ZINC001208652060
REMARK                            x       y       z     vdW  Elec       q    Type
REMARK                         _______ _______ _______ _____ _____    ______ ____
ROOT
ATOM      1  C   LIG    1        1.469  -0.490  -1.066  0.00  0.00    +0.020 C 
ENDROOT
BRANCH   1   3
ATOM      2  C   LIG    1        0.991   1.668   0.099  0.00  0.00    +0.020 C 
ATOM      3  C   LIG    1        0.715   0.163   0.094  0.00  0.00    -0.010 C 
BRANCH   3   4
ATOM      4  C   LIG    1        1.186  -0.447   1.416  0.00  0.00    +0.020 C 
BRANCH   4   5
ATOM      5  C   LIG    1        0.116  -0.231   2.488  0.00  0.00    -0.070 C 
ATOM      6  C   LIG    1       -0.223   1.258   2.578  0.00  0.00    +0.030 C 
ATOM      7  C   LIG    1        0.642  -0.717   3.840  0.00  0.00    +0.030 C 
ATOM      8  C   LIG    1       -1.142  -1.019   2.117  0.00  0.00    +0.010 C 
ENDBRANCH   4   5
ENDBRANCH   3   4
ENDBRANCH   1   3
BRANCH   1   9
ATOM      9  C   LIG    1        0.910   0.028  -2.393  0.00  0.00    +0.250 C 
BRANCH   9  10
ATOM     10  N   LIG    1        1.634  -0.599  -3.507  0.00  0.00    -0.410 N 
ATOM     11  C   LIG    1        1.084  -1.910  -3.900  0.00  0.00    +0.280 C 
ATOM     12  C   LIG    1        1.365  -1.528  -5.360  0.00  0.00    +0.090 C 
ATOM     13  C   LIG    1        1.226  -0.092  -4.831  0.00  0.00    +0.170 C 
ATOM     14  C   LIG    1       -0.210   0.435  -4.866  0.00  0.00    +0.110 C 
ATOM     15  H   LIG    1        2.634  -0.608  -3.371  0.00  0.00    +0.440 HD
ENDBRANCH   9  10
ENDBRANCH   1   9
TORSDOF 5
ENDMDL
MODEL      306
REMARK  Name = ZINC001208657749
REMARK                            x       y       z     vdW  Elec       q    Type
REMARK                         _______ _______ _______ _____ _____    ______ ____
ROOT
ATOM      1  C   LIG    1        1.639  -0.418   3.807  0.00  0.00    +0.040 C 
ENDROOT
BRANCH   1   2
ATOM      2  C   LIG    1        0.857   0.223   4.954  0.00  0.00    +0.000 C 
ATOM      3  C   LIG    1        1.177   1.718   5.017  0.00  0.00    +0.020 C 
BRANCH   2   4
ATOM      4  C   LIG    1        1.253  -0.439   6.275  0.00  0.00    +0.020 C 
BRANCH   4   5
ATOM      5  C   LIG    1        0.145  -0.222   7.307  0.00  0.00    -0.070 C 
ATOM      6  C   LIG    1       -0.153   1.274   7.429  0.00  0.00    +0.030 C 
ATOM      7  C   LIG    1        0.598  -0.764   8.664  0.00  0.00    +0.030 C 
ATOM      8  C   LIG    1       -1.119  -0.960   6.861  0.00  0.00    +0.020 C 
ENDBRANCH   4   5
ENDBRANCH   2   4
ENDBRANCH   1   2
BRANCH   1   9
ATOM      9  C   LIG    1        1.154   0.156   2.474  0.00  0.00    +0.240 C 
BRANCH   9  10
ATOM     10  N   LIG    1        1.906  -0.460   1.373  0.00  0.00    -0.380 N 
ATOM     11  C   LIG    1        1.598  -1.895   1.312  0.00  0.00    +0.310 C 
ATOM     12  H   LIG    1        2.895  -0.334   1.529  0.00  0.00    +0.420 HD
BRANCH  10  14
ATOM     13  C   LIG    1        1.845   1.671   0.167  0.00  0.00    +0.080 C 
ATOM     14  C   LIG    1        1.525   0.177   0.104  0.00  0.00    +0.160 C 
ATOM     15  C   LIG    1        2.308  -0.465  -1.043  0.00  0.00    +0.090 C 
ENDBRANCH  10  14
ENDBRANCH   9  10
ENDBRANCH   1   9
TORSDOF 6
ENDMDL
MODEL      307
REMARK  Name = ZINC001208657743
REMARK                            x       y       z     vdW  Elec       q    Type
REMARK                         _______ _______ _______ _____ _____    ______ ____
ROOT
ATOM      1  C   LIG    1        1.515  -0.551   3.358  0.00  0.00    +0.040 C 
ENDROOT
BRANCH   1   2
ATOM      2  C   LIG    1        0.687  -0.672   4.639  0.00  0.00    +0.000 C 
ATOM      3  C   LIG    1       -0.487  -1.623   4.400  0.00  0.00    +0.020 C 
BRANCH   2   4
ATOM      4  C   LIG    1        1.567  -1.220   5.765  0.00  0.00    +0.030 C 
BRANCH   4   5
ATOM      5  C   LIG    1        0.798  -1.162   7.087  0.00  0.00    -0.070 C 
ATOM      6  C   LIG    1        0.272   0.257   7.309  0.00  0.00    +0.020 C 
ATOM      7  C   LIG    1        1.731  -1.547   8.237  0.00  0.00    +0.020 C 
ATOM      8  C   LIG    1       -0.378  -2.139   7.035  0.00  0.00    +0.030 C 
ENDBRANCH   4   5
ENDBRANCH   2   4
ENDBRANCH   1   2
BRANCH   1   9
ATOM      9  C   LIG    1        0.672   0.112   2.267  0.00  0.00    +0.240 C 
BRANCH   9  10
ATOM     10  N   LIG    1        1.467   0.227   1.037  0.00  0.00    -0.380 N 
ATOM     11  C   LIG    1        1.778  -1.115   0.526  0.00  0.00    +0.310 C 
ATOM     12  H   LIG    1        2.326   0.718   1.236  0.00  0.00    +0.420 HD
BRANCH  10  14
ATOM     13  C   LIG    1        0.379   2.368   0.558  0.00  0.00    +0.080 C 
ATOM     14  C   LIG    1        0.702   0.970   0.027  0.00  0.00    +0.160 C 
ATOM     15  C   LIG    1        1.530   1.090  -1.254  0.00  0.00    +0.090 C 
ENDBRANCH  10  14
ENDBRANCH   9  10
ENDBRANCH   1   9
TORSDOF 6
ENDMDL
MODEL      308
REMARK  Name = ZINC001208188639
REMARK                            x       y       z     vdW  Elec       q    Type
REMARK                         _______ _______ _______ _____ _____    ______ ____
ROOT
ATOM      1  C   LIG    1        3.238  -5.170   1.540  0.00  0.00    +0.030 C 
ENDROOT
BRANCH   1   2
ATOM      2  C   LIG    1        2.983  -3.661   1.571  0.00  0.00    +0.020 C 
BRANCH   2   3
ATOM      3  C   LIG    1        2.507  -3.196   0.194  0.00  0.00    +0.030 C 
BRANCH   3   4
ATOM      4  C   LIG    1        2.252  -1.688   0.225  0.00  0.00    +0.050 C 
BRANCH   4   6
ATOM      5  C   LIG    1        0.669  -0.551  -1.245  0.00  0.00    -0.040 C 
ATOM      6  C   LIG    1        1.784  -1.229  -1.132  0.00  0.00    -0.060 C 
BRANCH   5   8
ATOM      7  C   LIG    1       -0.328   1.420  -0.117  0.00  0.00    +0.030 C 
ATOM      8  C   LIG    1       -0.057  -0.082  -0.010  0.00  0.00    +0.030 C 
ENDBRANCH   5   8
ENDBRANCH   4   6
ENDBRANCH   3   4
ENDBRANCH   2   3
ENDBRANCH   1   2
BRANCH   1   9
ATOM      9  C   LIG    1        3.714  -5.635   2.918  0.00  0.00    +0.250 C 
BRANCH   9  10
ATOM     10  N   LIG    1        3.959  -7.083   2.888  0.00  0.00    -0.360 N 
ATOM     11  C   LIG    1        5.072  -7.373   1.974  0.00  0.00    +0.320 C 
ATOM     12  H   LIG    1        3.128  -7.558   2.568  0.00  0.00    +0.420 HD
BRANCH  10  13
ATOM     13  C   LIG    1        4.300  -7.550   4.239  0.00  0.00    +0.090 C 
ATOM     14  C   LIG    1        3.287  -8.448   4.952  0.00  0.00    +0.100 C 
ATOM     15  C   LIG    1        4.592  -9.041   4.418  0.00  0.00    +0.100 C 
ENDBRANCH  10  13
ENDBRANCH   9  10
ENDBRANCH   1   9
TORSDOF 8
ENDMDL
MODEL      309
REMARK  Name = ZINC001208656102
REMARK                            x       y       z     vdW  Elec       q    Type
REMARK                         _______ _______ _______ _____ _____    ______ ____
ROOT
ATOM      1  C   LIG    1        1.091  -4.161  -1.894  0.00  0.00    +0.030 C 
ENDROOT
BRANCH   1   2
ATOM      2  C   LIG    1        2.318  -4.721  -2.616  0.00  0.00    +0.000 C 
ATOM      3  C   LIG    1        3.578  -4.031  -2.091  0.00  0.00    +0.020 C 
BRANCH   2   4
ATOM      4  C   LIG    1        2.417  -6.227  -2.360  0.00  0.00    +0.030 C 
BRANCH   4   5
ATOM      5  C   LIG    1        3.528  -6.820  -3.229  0.00  0.00    -0.070 C 
ATOM      6  C   LIG    1        3.297  -6.426  -4.690  0.00  0.00    +0.020 C 
ATOM      7  C   LIG    1        3.514  -8.345  -3.104  0.00  0.00    +0.020 C 
ATOM      8  C   LIG    1        4.882  -6.282  -2.764  0.00  0.00    +0.030 C 
ENDBRANCH   4   5
ENDBRANCH   2   4
ENDBRANCH   1   2
BRANCH   1   9
ATOM      9  C   LIG    1        0.920  -2.683  -2.251  0.00  0.00    +0.250 C 
BRANCH   9  10
ATOM     10  N   LIG    1       -0.258  -2.145  -1.558  0.00  0.00    -0.390 N 
ATOM     11  C   LIG    1       -1.468  -2.808  -2.062  0.00  0.00    +0.300 C 
ATOM     12  H   LIG    1       -0.171  -2.313  -0.567  0.00  0.00    +0.420 HD
BRANCH  10  13
ATOM     13  C   LIG    1       -0.353  -0.700  -1.804  0.00  0.00    +0.250 C 
BRANCH  13  15
ATOM     14  C   LIG    1       -1.605   1.387  -1.239  0.00  0.00    +0.060 C 
ATOM     15  C   LIG    1       -1.506  -0.118  -0.983  0.00  0.00    +0.030 C 
ENDBRANCH  13  15
ENDBRANCH  10  13
ENDBRANCH   9  10
ENDBRANCH   1   9
TORSDOF 7
ENDMDL
MODEL      310
REMARK  Name = ZINC001208190329
REMARK                            x       y       z     vdW  Elec       q    Type
REMARK                         _______ _______ _______ _____ _____    ______ ____
ROOT
ATOM      1  C   LIG    1        3.238  -5.170   1.540  0.00  0.00    +0.020 C 
ENDROOT
BRANCH   1   2
ATOM      2  C   LIG    1        2.983  -3.661   1.571  0.00  0.00    +0.020 C 
BRANCH   2   3
ATOM      3  C   LIG    1        2.507  -3.196   0.194  0.00  0.00    +0.030 C 
BRANCH   3   4
ATOM      4  C   LIG    1        2.252  -1.688   0.225  0.00  0.00    +0.050 C 
BRANCH   4   6
ATOM      5  C   LIG    1        0.669  -0.551  -1.245  0.00  0.00    -0.040 C 
ATOM      6  C   LIG    1        1.784  -1.229  -1.132  0.00  0.00    -0.060 C 
BRANCH   5   8
ATOM      7  C   LIG    1       -0.328   1.420  -0.117  0.00  0.00    +0.030 C 
ATOM      8  C   LIG    1       -0.057  -0.082  -0.010  0.00  0.00    +0.030 C 
ENDBRANCH   5   8
ENDBRANCH   4   6
ENDBRANCH   3   4
ENDBRANCH   2   3
ENDBRANCH   1   2
BRANCH   1   9
ATOM      9  C   LIG    1        3.714  -5.635   2.918  0.00  0.00    +0.250 C 
BRANCH   9  10
ATOM     10  N   LIG    1        3.959  -7.083   2.888  0.00  0.00    -0.410 N 
ATOM     11  C   LIG    1        5.307  -7.440   2.410  0.00  0.00    +0.290 C 
ATOM     12  C   LIG    1        5.325  -8.557   3.463  0.00  0.00    +0.090 C 
ATOM     13  C   LIG    1        4.335  -7.641   4.200  0.00  0.00    +0.170 C 
ATOM     14  C   LIG    1        5.015  -6.627   5.123  0.00  0.00    +0.110 C 
ATOM     15  H   LIG    1        3.221  -7.597   2.430  0.00  0.00    +0.440 HD
ENDBRANCH   9  10
ENDBRANCH   1   9
TORSDOF 7
ENDMDL
MODEL      311
REMARK  Name = ZINC001208652062
REMARK                            x       y       z     vdW  Elec       q    Type
REMARK                         _______ _______ _______ _____ _____    ______ ____
ROOT
ATOM      1  C   LIG    1        1.999  -0.799   0.536  0.00  0.00    +0.020 C 
ENDROOT
BRANCH   1   3
ATOM      2  C   LIG    1        1.074   1.413  -0.166  0.00  0.00    +0.020 C 
ATOM      3  C   LIG    1        0.894  -0.104  -0.261  0.00  0.00    +0.000 C 
BRANCH   3   4
ATOM      4  C   LIG    1        0.974  -0.536  -1.726  0.00  0.00    +0.030 C 
BRANCH   4   5
ATOM      5  C   LIG    1       -0.239   0.006  -2.485  0.00  0.00    -0.070 C 
ATOM      6  C   LIG    1       -1.521  -0.406  -1.758  0.00  0.00    +0.020 C 
ATOM      7  C   LIG    1       -0.252  -0.566  -3.904  0.00  0.00    +0.020 C 
ATOM      8  C   LIG    1       -0.159   1.533  -2.551  0.00  0.00    +0.030 C 
ENDBRANCH   4   5
ENDBRANCH   3   4
ENDBRANCH   1   3
BRANCH   1   9
ATOM      9  C   LIG    1        1.844  -0.465   2.022  0.00  0.00    +0.250 C 
BRANCH   9  10
ATOM     10  N   LIG    1        2.905  -1.133   2.787  0.00  0.00    -0.410 N 
ATOM     11  C   LIG    1        4.160  -0.362   2.845  0.00  0.00    +0.290 C 
ATOM     12  C   LIG    1        4.315  -0.829   4.299  0.00  0.00    +0.090 C 
ATOM     13  C   LIG    1        2.784  -0.944   4.245  0.00  0.00    +0.170 C 
ATOM     14  C   LIG    1        2.062   0.348   4.635  0.00  0.00    +0.110 C 
ATOM     15  H   LIG    1        3.038  -2.096   2.518  0.00  0.00    +0.440 HD
ENDBRANCH   9  10
ENDBRANCH   1   9
TORSDOF 5
ENDMDL
MODEL      312
REMARK  Name = ZINC000379372372
REMARK                            x       y       z     vdW  Elec       q    Type
REMARK                         _______ _______ _______ _____ _____    ______ ____
ROOT
ATOM      1  N   LIG    1        2.234  -2.211  -0.412  0.00  0.00    -0.380 N 
ATOM      2  H   LIG    1        3.220  -2.245  -0.622  0.00  0.00    +0.420 HD
ENDROOT
BRANCH   1   3
ATOM      3  C   LIG    1        1.532  -1.475  -1.471  0.00  0.00    +0.160 C 
ATOM      4  C   LIG    1        0.022  -1.549  -1.230  0.00  0.00    +0.080 C 
BRANCH   3   5
ATOM      5  C   LIG    1        1.862  -2.096  -2.829  0.00  0.00    +0.050 C 
BRANCH   5   7
ATOM      6  C   LIG    1        3.702  -2.620  -4.436  0.00  0.00    +0.040 C 
ATOM      7  C   LIG    1        3.353  -1.918  -3.123  0.00  0.00    -0.010 C 
ENDBRANCH   5   7
ENDBRANCH   3   5
ENDBRANCH   1   3
BRANCH   1   8
ATOM      8  C   LIG    1        2.031  -1.531   0.875  0.00  0.00    +0.240 C 
ATOM      9  C   LIG    1        2.639  -0.129   0.812  0.00  0.00    +0.080 C 
ENDBRANCH   1   8
BRANCH   1  10
ATOM     10  C   LIG    1        1.703  -3.579  -0.332  0.00  0.00    +0.240 C 
BRANCH  10  11
ATOM     11  C   LIG    1        2.498  -4.375   0.705  0.00  0.00    -0.020 C 
ATOM     12  C   LIG    1        1.794  -4.292   2.061  0.00  0.00    +0.040 C 
BRANCH  11  13
ATOM     13  C   LIG    1        2.589  -5.837   0.266  0.00  0.00    +0.030 C 
ATOM     14  C   LIG    1        3.487  -6.607   1.236  0.00  0.00    +0.030 C 
ENDBRANCH  11  13
ENDBRANCH  10  11
ENDBRANCH   1  10
TORSDOF 7
ENDMDL
MODEL      313
REMARK  Name = ZINC000379372371
REMARK                            x       y       z     vdW  Elec       q    Type
REMARK                         _______ _______ _______ _____ _____    ______ ____
ROOT
ATOM      1  N   LIG    1       -0.609  -2.448  -0.813  0.00  0.00    -0.380 N 
ATOM      2  H   LIG    1       -0.999  -2.190  -1.707  0.00  0.00    +0.420 HD
ENDROOT
BRANCH   1   3
ATOM      3  C   LIG    1        0.844  -2.237  -0.833  0.00  0.00    +0.150 C 
ATOM      4  C   LIG    1        1.456  -2.779   0.461  0.00  0.00    +0.080 C 
BRANCH   3   5
ATOM      5  C   LIG    1        1.450  -2.973  -2.030  0.00  0.00    +0.050 C 
BRANCH   5   7
ATOM      6  C   LIG    1        1.597  -3.026  -4.523  0.00  0.00    +0.030 C 
ATOM      7  C   LIG    1        0.898  -2.377  -3.327  0.00  0.00    -0.000 C 
ENDBRANCH   5   7
ENDBRANCH   3   5
ENDBRANCH   1   3
BRANCH   1   8
ATOM      8  C   LIG    1       -0.895  -3.864  -0.545  0.00  0.00    +0.240 C 
ATOM      9  C   LIG    1       -2.396  -4.119  -0.697  0.00  0.00    +0.080 C 
ENDBRANCH   1   8
BRANCH   1  10
ATOM     10  C   LIG    1       -1.210  -1.620   0.241  0.00  0.00    +0.240 C 
BRANCH  10  11
ATOM     11  C   LIG    1       -1.511  -0.226  -0.315  0.00  0.00    -0.020 C 
ATOM     12  C   LIG    1       -0.204   0.449  -0.734  0.00  0.00    +0.040 C 
BRANCH  11  13
ATOM     13  C   LIG    1       -2.198   0.615   0.763  0.00  0.00    +0.020 C 
ATOM     14  C   LIG    1       -2.611   1.964   0.170  0.00  0.00    +0.030 C 
ENDBRANCH  11  13
ENDBRANCH  10  11
ENDBRANCH   1  10
TORSDOF 7
ENDMDL
MODEL      314
REMARK  Name = ZINC000379372374
REMARK                            x       y       z     vdW  Elec       q    Type
REMARK                         _______ _______ _______ _____ _____    ______ ____
ROOT
ATOM      1  N   LIG    1        1.612  -2.661  -0.090  0.00  0.00    -0.380 N 
ATOM      2  H   LIG    1        2.506  -2.204   0.007  0.00  0.00    +0.420 HD
ENDROOT
BRANCH   1   3
ATOM      3  C   LIG    1        0.879  -2.068  -1.217  0.00  0.00    +0.160 C 
ATOM      4  C   LIG    1       -0.408  -2.859  -1.462  0.00  0.00    +0.090 C 
BRANCH   3   5
ATOM      5  C   LIG    1        1.751  -2.111  -2.473  0.00  0.00    +0.050 C 
BRANCH   5   7
ATOM      6  C   LIG    1        3.901  -1.341  -3.487  0.00  0.00    +0.040 C 
ATOM      7  C   LIG    1        2.979  -1.222  -2.272  0.00  0.00    -0.010 C 
ENDBRANCH   5   7
ENDBRANCH   3   5
ENDBRANCH   1   3
BRANCH   1   8
ATOM      8  C   LIG    1        0.836  -2.487   1.145  0.00  0.00    +0.240 C 
ATOM      9  C   LIG    1        0.742  -0.997   1.482  0.00  0.00    +0.080 C 
ENDBRANCH   1   8
BRANCH   1  10
ATOM     10  C   LIG    1        1.819  -4.094  -0.341  0.00  0.00    +0.240 C 
BRANCH  10  11
ATOM     11  C   LIG    1        2.724  -4.676   0.746  0.00  0.00    -0.030 C 
ATOM     12  C   LIG    1        4.119  -4.056   0.633  0.00  0.00    +0.040 C 
BRANCH  11  13
ATOM     13  C   LIG    1        2.824  -6.192   0.568  0.00  0.00    +0.020 C 
ATOM     14  C   LIG    1        3.627  -6.790   1.726  0.00  0.00    +0.030 C 
ENDBRANCH  11  13
ENDBRANCH  10  11
ENDBRANCH   1  10
TORSDOF 7
ENDMDL
MODEL      315
REMARK  Name = ZINC000379372373
REMARK                            x       y       z     vdW  Elec       q    Type
REMARK                         _______ _______ _______ _____ _____    ______ ____
ROOT
ATOM      1  N   LIG    1       -0.594  -2.432  -1.256  0.00  0.00    -0.380 N 
ATOM      2  H   LIG    1       -1.202  -2.239  -2.037  0.00  0.00    +0.420 HD
ENDROOT
BRANCH   1   3
ATOM      3  C   LIG    1        0.764  -1.964  -1.565  0.00  0.00    +0.160 C 
ATOM      4  C   LIG    1        1.716  -2.385  -0.444  0.00  0.00    +0.080 C 
BRANCH   3   5
ATOM      5  C   LIG    1        1.227  -2.580  -2.887  0.00  0.00    +0.050 C 
BRANCH   5   7
ATOM      6  C   LIG    1        0.863  -2.604  -5.358  0.00  0.00    +0.030 C 
ATOM      7  C   LIG    1        0.324  -2.093  -4.021  0.00  0.00    -0.000 C 
ENDBRANCH   5   7
ENDBRANCH   3   5
ENDBRANCH   1   3
BRANCH   1   8
ATOM      8  C   LIG    1       -0.567  -3.878  -1.002  0.00  0.00    +0.240 C 
ATOM      9  C   LIG    1       -1.998  -4.394  -0.838  0.00  0.00    +0.080 C 
ENDBRANCH   1   8
BRANCH   1  10
ATOM     10  C   LIG    1       -1.092  -1.735  -0.063  0.00  0.00    +0.240 C 
BRANCH  10  11
ATOM     11  C   LIG    1       -1.245  -0.243  -0.370  0.00  0.00    -0.030 C 
ATOM     12  C   LIG    1       -2.317  -0.051  -1.444  0.00  0.00    +0.040 C 
BRANCH  11  13
ATOM     13  C   LIG    1       -1.658   0.500   0.902  0.00  0.00    +0.020 C 
ATOM     14  C   LIG    1       -1.690   2.004   0.626  0.00  0.00    +0.030 C 
ENDBRANCH  11  13
ENDBRANCH  10  11
ENDBRANCH   1  10
TORSDOF 7
ENDMDL
MODEL      316
REMARK  Name = ZINC001208188899
REMARK                            x       y       z     vdW  Elec       q    Type
REMARK                         _______ _______ _______ _____ _____    ______ ____
ROOT
ATOM      1  C   LIG    1       -0.153  -5.188  -3.552  0.00  0.00    +0.030 C 
ENDROOT
BRANCH   1   2
ATOM      2  C   LIG    1       -0.037  -3.675  -3.352  0.00  0.00    +0.020 C 
BRANCH   2   3
ATOM      3  C   LIG    1       -1.004  -3.230  -2.252  0.00  0.00    +0.030 C 
BRANCH   3   4
ATOM      4  C   LIG    1       -0.887  -1.718  -2.053  0.00  0.00    +0.050 C 
BRANCH   4   6
ATOM      5  C   LIG    1       -1.397  -0.586   0.050  0.00  0.00    -0.040 C 
ATOM      6  C   LIG    1       -1.839  -1.279  -0.970  0.00  0.00    -0.060 C 
BRANCH   5   8
ATOM      7  C   LIG    1        0.028   1.422   0.342  0.00  0.00    +0.030 C 
ATOM      8  C   LIG    1        0.023  -0.082   0.059  0.00  0.00    +0.030 C 
ENDBRANCH   5   8
ENDBRANCH   4   6
ENDBRANCH   3   4
ENDBRANCH   2   3
ENDBRANCH   1   2
BRANCH   1   9
ATOM      9  C   LIG    1        0.813  -5.633  -4.651  0.00  0.00    +0.240 C 
BRANCH   9  10
ATOM     10  N   LIG    1        0.701  -7.085  -4.843  0.00  0.00    -0.380 N 
ATOM     11  C   LIG    1       -0.639  -7.410  -5.349  0.00  0.00    +0.320 C 
ATOM     12  H   LIG    1        0.851  -7.553  -3.962  0.00  0.00    +0.420 HD
BRANCH  10  13
ATOM     13  C   LIG    1        1.712  -7.530  -5.812  0.00  0.00    +0.160 C 
ATOM     14  C   LIG    1        1.595  -9.042  -6.012  0.00  0.00    +0.090 C 
ATOM     15  C   LIG    1        3.108  -7.191  -5.285  0.00  0.00    +0.080 C 
ENDBRANCH  10  13
ENDBRANCH   9  10
ENDBRANCH   1   9
TORSDOF 8
ENDMDL
MODEL      317
REMARK  Name = ZINC000622260944
REMARK                            x       y       z     vdW  Elec       q    Type
REMARK                         _______ _______ _______ _____ _____    ______ ____
ROOT
ATOM      1  N   LIG    1       -0.255  -0.156   2.668  0.00  0.00    -0.390 N 
ATOM      2  C   LIG    1       -1.559  -0.838   2.810  0.00  0.00    +0.250 C 
ATOM      3  C   LIG    1       -1.255  -2.103   3.649  0.00  0.00    +0.080 C 
ATOM      4  C   LIG    1       -0.187  -1.572   4.641  0.00  0.00    +0.070 C 
ATOM      5  C   LIG    1        0.613  -0.572   3.785  0.00  0.00    +0.160 C 
ATOM      6  H   LIG    1       -0.389   0.844   2.697  0.00  0.00    +0.420 HD
ENDROOT
BRANCH   1   7
ATOM      7  C   LIG    1        0.366  -0.536   1.392  0.00  0.00    +0.240 C 
BRANCH   7   9
ATOM      8  C   LIG    1       -0.492   1.510   0.244  0.00  0.00    +0.040 C 
ATOM      9  C   LIG    1       -0.491  -0.020   0.234  0.00  0.00    -0.030 C 
ATOM     10  C   LIG    1        0.086  -0.521  -1.091  0.00  0.00    +0.070 C 
ENDBRANCH   7   9
ENDBRANCH   1   7
BRANCH   5  11
ATOM     11  C   LIG    1        0.995   0.646   4.628  0.00  0.00    +0.070 C 
BRANCH  11  12
ATOM     12  C   LIG    1        1.954   1.535   3.835  0.00  0.00    -0.080 C 
ATOM     13  C   LIG    1        3.130   0.695   3.332  0.00  0.00    +0.030 C 
ATOM     14  C   LIG    1        2.476   2.655   4.737  0.00  0.00    +0.050 C 
ATOM     15  C   LIG    1        1.215   2.144   2.641  0.00  0.00    +0.030 C 
ENDBRANCH  11  12
ENDBRANCH   5  11
TORSDOF 4
ENDMDL
MODEL      318
REMARK  Name = ZINC000622260945
REMARK                            x       y       z     vdW  Elec       q    Type
REMARK                         _______ _______ _______ _____ _____    ______ ____
ROOT
ATOM      1  N   LIG    1        0.336  -0.179   2.032  0.00  0.00    -0.390 N 
ATOM      2  C   LIG    1       -0.926  -0.843   1.641  0.00  0.00    +0.250 C 
ATOM      3  C   LIG    1       -1.527  -1.366   2.970  0.00  0.00    +0.070 C 
ATOM      4  C   LIG    1       -0.253  -1.807   3.737  0.00  0.00    +0.090 C 
ATOM      5  C   LIG    1        0.790  -0.758   3.310  0.00  0.00    +0.160 C 
ATOM      6  H   LIG    1        0.177   0.811   2.145  0.00  0.00    +0.420 HD
ENDROOT
BRANCH   1   7
ATOM      7  C   LIG    1        1.354  -0.403   0.997  0.00  0.00    +0.250 C 
BRANCH   7   9
ATOM      8  C   LIG    1        0.866   1.784  -0.106  0.00  0.00    +0.030 C 
ATOM      9  C   LIG    1        0.914   0.268  -0.305  0.00  0.00    -0.030 C 
ATOM     10  C   LIG    1        1.911  -0.069  -1.415  0.00  0.00    +0.070 C 
ENDBRANCH   7   9
ENDBRANCH   1   7
BRANCH   5  11
ATOM     11  C   LIG    1        2.155  -1.425   3.127  0.00  0.00    +0.050 C 
BRANCH  11  12
ATOM     12  C   LIG    1        2.674  -1.905   4.483  0.00  0.00    -0.060 C 
ATOM     13  C   LIG    1        2.665  -0.739   5.474  0.00  0.00    +0.030 C 
ATOM     14  C   LIG    1        4.103  -2.429   4.326  0.00  0.00    +0.040 C 
ATOM     15  C   LIG    1        1.774  -3.026   5.006  0.00  0.00    +0.030 C 
ENDBRANCH  11  12
ENDBRANCH   5  11
TORSDOF 4
ENDMDL
MODEL      319
REMARK  Name = ZINC001208187998
REMARK                            x       y       z     vdW  Elec       q    Type
REMARK                         _______ _______ _______ _____ _____    ______ ____
ROOT
ATOM      1  C   LIG    1        3.238  -5.170   1.540  0.00  0.00    +0.030 C 
ENDROOT
BRANCH   1   2
ATOM      2  C   LIG    1        2.983  -3.661   1.571  0.00  0.00    +0.020 C 
BRANCH   2   3
ATOM      3  C   LIG    1        2.507  -3.196   0.194  0.00  0.00    +0.030 C 
BRANCH   3   4
ATOM      4  C   LIG    1        2.252  -1.688   0.225  0.00  0.00    +0.050 C 
BRANCH   4   6
ATOM      5  C   LIG    1        0.669  -0.551  -1.245  0.00  0.00    -0.040 C 
ATOM      6  C   LIG    1        1.784  -1.229  -1.132  0.00  0.00    -0.060 C 
BRANCH   5   8
ATOM      7  C   LIG    1       -0.328   1.420  -0.117  0.00  0.00    +0.030 C 
ATOM      8  C   LIG    1       -0.057  -0.082  -0.010  0.00  0.00    +0.030 C 
ENDBRANCH   5   8
ENDBRANCH   4   6
ENDBRANCH   3   4
ENDBRANCH   2   3
ENDBRANCH   1   2
BRANCH   1   9
ATOM      9  C   LIG    1        3.714  -5.635   2.918  0.00  0.00    +0.250 C 
BRANCH   9  10
ATOM     10  N   LIG    1        3.959  -7.083   2.888  0.00  0.00    -0.390 N 
ATOM     11  C   LIG    1        2.692  -7.789   2.656  0.00  0.00    +0.310 C 
ATOM     12  H   LIG    1        4.606  -7.300   2.145  0.00  0.00    +0.420 HD
BRANCH  10  13
ATOM     13  C   LIG    1        4.529  -7.510   4.173  0.00  0.00    +0.250 C 
BRANCH  13  14
ATOM     14  C   LIG    1        4.899  -8.993   4.099  0.00  0.00    +0.030 C 
ATOM     15  C   LIG    1        5.493  -9.437   5.437  0.00  0.00    +0.060 C 
ENDBRANCH  13  14
ENDBRANCH  10  13
ENDBRANCH   9  10
ENDBRANCH   1   9
TORSDOF 9
ENDMDL
MODEL      320
REMARK  Name = ZINC001208652059
REMARK                            x       y       z     vdW  Elec       q    Type
REMARK                         _______ _______ _______ _____ _____    ______ ____
ROOT
ATOM      1  C   LIG    1        1.999  -0.799   0.536  0.00  0.00    +0.020 C 
ENDROOT
BRANCH   1   3
ATOM      2  C   LIG    1        1.074   1.413  -0.166  0.00  0.00    +0.020 C 
ATOM      3  C   LIG    1        0.894  -0.104  -0.261  0.00  0.00    +0.000 C 
BRANCH   3   4
ATOM      4  C   LIG    1        0.974  -0.536  -1.726  0.00  0.00    +0.030 C 
BRANCH   4   5
ATOM      5  C   LIG    1       -0.239   0.006  -2.485  0.00  0.00    -0.070 C 
ATOM      6  C   LIG    1       -1.521  -0.406  -1.758  0.00  0.00    +0.020 C 
ATOM      7  C   LIG    1       -0.252  -0.566  -3.904  0.00  0.00    +0.020 C 
ATOM      8  C   LIG    1       -0.159   1.533  -2.551  0.00  0.00    +0.030 C 
ENDBRANCH   4   5
ENDBRANCH   3   4
ENDBRANCH   1   3
BRANCH   1   9
ATOM      9  C   LIG    1        1.844  -0.465   2.022  0.00  0.00    +0.250 C 
BRANCH   9  10
ATOM     10  N   LIG    1        2.905  -1.133   2.787  0.00  0.00    -0.410 N 
ATOM     11  C   LIG    1        4.160  -0.362   2.845  0.00  0.00    +0.290 C 
ATOM     12  C   LIG    1        4.315  -0.829   4.299  0.00  0.00    +0.090 C 
ATOM     13  C   LIG    1        2.784  -0.944   4.245  0.00  0.00    +0.190 C 
ATOM     14  C   LIG    1        2.238  -2.170   4.979  0.00  0.00    +0.090 C 
ATOM     15  H   LIG    1        3.038  -2.096   2.518  0.00  0.00    +0.430 HD
ENDBRANCH   9  10
ENDBRANCH   1   9
TORSDOF 5
ENDMDL
MODEL      321
REMARK  Name = ZINC001173274572
REMARK                            x       y       z     vdW  Elec       q    Type
REMARK                         _______ _______ _______ _____ _____    ______ ____
ROOT
ATOM      1  N   LIG    1       -2.938  -2.793  -0.018  0.00  0.00    -0.380 N 
ATOM      2  H   LIG    1       -3.510  -2.440   0.734  0.00  0.00    +0.420 HD
ENDROOT
BRANCH   1   3
ATOM      3  C   LIG    1       -3.090  -4.252  -0.106  0.00  0.00    +0.160 C 
ATOM      4  C   LIG    1       -4.579  -4.639  -0.281  0.00  0.00    +0.040 C 
ATOM      5  C   LIG    1       -4.658  -6.087   0.245  0.00  0.00    +0.050 C 
ATOM      6  C   LIG    1       -3.474  -6.268   1.212  0.00  0.00    +0.000 C 
ATOM      7  C   LIG    1       -2.713  -4.925   1.237  0.00  0.00    +0.040 C 
BRANCH   6   8
ATOM      8  C   LIG    1       -3.988  -6.610   2.612  0.00  0.00    +0.010 C 
ATOM      9  C   LIG    1       -4.657  -7.986   2.588  0.00  0.00    +0.020 C 
ENDBRANCH   6   8
ENDBRANCH   1   3
BRANCH   1  10
ATOM     10  C   LIG    1       -3.360  -2.180  -1.285  0.00  0.00    +0.240 C 
ATOM     11  C   LIG    1       -2.434  -2.646  -2.410  0.00  0.00    +0.070 C 
ENDBRANCH   1  10
BRANCH   1  12
ATOM     12  C   LIG    1       -1.530  -2.462   0.241  0.00  0.00    +0.240 C 
BRANCH  12  13
ATOM     13  C   LIG    1       -1.392  -0.954   0.456  0.00  0.00    +0.030 C 
BRANCH  13  15
ATOM     14  C   LIG    1        0.212   0.899   0.941  0.00  0.00    +0.030 C 
ATOM     15  C   LIG    1        0.074  -0.609   0.726  0.00  0.00    +0.020 C 
ENDBRANCH  13  15
ENDBRANCH  12  13
ENDBRANCH   1  12
TORSDOF 6
ENDMDL
MODEL      322
REMARK  Name = ZINC001208652061
REMARK                            x       y       z     vdW  Elec       q    Type
REMARK                         _______ _______ _______ _____ _____    ______ ____
ROOT
ATOM      1  C   LIG    1        1.469  -0.490  -1.066  0.00  0.00    +0.020 C 
ENDROOT
BRANCH   1   3
ATOM      2  C   LIG    1        0.991   1.668   0.099  0.00  0.00    +0.020 C 
ATOM      3  C   LIG    1        0.715   0.163   0.094  0.00  0.00    -0.010 C 
BRANCH   3   4
ATOM      4  C   LIG    1        1.186  -0.447   1.416  0.00  0.00    +0.020 C 
BRANCH   4   5
ATOM      5  C   LIG    1        0.116  -0.231   2.488  0.00  0.00    -0.070 C 
ATOM      6  C   LIG    1       -0.223   1.258   2.578  0.00  0.00    +0.030 C 
ATOM      7  C   LIG    1        0.642  -0.717   3.840  0.00  0.00    +0.030 C 
ATOM      8  C   LIG    1       -1.142  -1.019   2.117  0.00  0.00    +0.010 C 
ENDBRANCH   4   5
ENDBRANCH   3   4
ENDBRANCH   1   3
BRANCH   1   9
ATOM      9  C   LIG    1        0.910   0.028  -2.393  0.00  0.00    +0.250 C 
BRANCH   9  10
ATOM     10  N   LIG    1        1.634  -0.599  -3.507  0.00  0.00    -0.410 N 
ATOM     11  C   LIG    1        1.084  -1.910  -3.900  0.00  0.00    +0.290 C 
ATOM     12  C   LIG    1        1.365  -1.528  -5.360  0.00  0.00    +0.090 C 
ATOM     13  C   LIG    1        1.226  -0.092  -4.831  0.00  0.00    +0.190 C 
ATOM     14  C   LIG    1        2.229   0.885  -5.448  0.00  0.00    +0.090 C 
ATOM     15  H   LIG    1        2.634  -0.608  -3.371  0.00  0.00    +0.430 HD
ENDBRANCH   9  10
ENDBRANCH   1   9
TORSDOF 5
ENDMDL
MODEL      323
REMARK  Name = ZINC000622278541
REMARK                            x       y       z     vdW  Elec       q    Type
REMARK                         _______ _______ _______ _____ _____    ______ ____
ROOT
ATOM      1  N   LIG    1        1.319  -2.371   1.927  0.00  0.00    -0.390 N 
ATOM      2  C   LIG    1        0.461  -1.679   2.913  0.00  0.00    +0.250 C 
ATOM      3  C   LIG    1        0.391  -2.645   4.122  0.00  0.00    +0.070 C 
ATOM      4  C   LIG    1        0.349  -4.027   3.417  0.00  0.00    +0.080 C 
ATOM      5  C   LIG    1        1.262  -3.820   2.194  0.00  0.00    +0.160 C 
ATOM      6  H   LIG    1        2.270  -2.046   2.017  0.00  0.00    +0.420 HD
ENDROOT
BRANCH   1   7
ATOM      7  C   LIG    1        0.829  -2.099   0.569  0.00  0.00    +0.240 C 
BRANCH   7   8
ATOM      8  C   LIG    1        0.966  -0.606   0.266  0.00  0.00    +0.010 C 
BRANCH   8  10
ATOM      9  C   LIG    1        0.593   1.171  -1.450  0.00  0.00    +0.030 C 
ATOM     10  C   LIG    1        0.456  -0.323  -1.148  0.00  0.00    +0.020 C 
ENDBRANCH   8  10
ENDBRANCH   7   8
ENDBRANCH   1   7
BRANCH   5  11
ATOM     11  C   LIG    1        0.684  -4.554   0.983  0.00  0.00    +0.050 C 
BRANCH  11  12
ATOM     12  C   LIG    1        0.753  -6.064   1.221  0.00  0.00    -0.060 C 
ATOM     13  C   LIG    1        2.187  -6.459   1.579  0.00  0.00    +0.030 C 
ATOM     14  C   LIG    1        0.323  -6.801  -0.049  0.00  0.00    +0.040 C 
ATOM     15  C   LIG    1       -0.183  -6.442   2.371  0.00  0.00    +0.030 C 
ENDBRANCH  11  12
ENDBRANCH   5  11
TORSDOF 5
ENDMDL
MODEL      324
REMARK  Name = ZINC001208656106
REMARK                            x       y       z     vdW  Elec       q    Type
REMARK                         _______ _______ _______ _____ _____    ______ ____
ROOT
ATOM      1  C   LIG    1        1.122  -4.564  -2.161  0.00  0.00    +0.040 C 
ENDROOT
BRANCH   1   2
ATOM      2  C   LIG    1        1.872  -4.902  -3.451  0.00  0.00    +0.000 C 
ATOM      3  C   LIG    1        0.901  -4.857  -4.633  0.00  0.00    +0.020 C 
BRANCH   2   4
ATOM      4  C   LIG    1        2.474  -6.304  -3.339  0.00  0.00    +0.030 C 
BRANCH   4   5
ATOM      5  C   LIG    1        3.635  -6.441  -4.327  0.00  0.00    -0.070 C 
ATOM      6  C   LIG    1        3.151  -6.085  -5.734  0.00  0.00    +0.030 C 
ATOM      7  C   LIG    1        4.148  -7.883  -4.313  0.00  0.00    +0.030 C 
ATOM      8  C   LIG    1        4.765  -5.494  -3.921  0.00  0.00    +0.020 C 
ENDBRANCH   4   5
ENDBRANCH   2   4
ENDBRANCH   1   2
BRANCH   1   9
ATOM      9  C   LIG    1        0.626  -3.118  -2.223  0.00  0.00    +0.250 C 
BRANCH   9  10
ATOM     10  N   LIG    1       -0.095  -2.794  -0.985  0.00  0.00    -0.390 N 
ATOM     11  C   LIG    1       -1.308  -3.617  -0.894  0.00  0.00    +0.300 C 
ATOM     12  H   LIG    1        0.499  -2.982  -0.191  0.00  0.00    +0.420 HD
BRANCH  10  13
ATOM     13  C   LIG    1       -0.466  -1.373  -0.992  0.00  0.00    +0.250 C 
BRANCH  13  15
ATOM     14  C   LIG    1       -1.493   0.474   0.341  0.00  0.00    +0.060 C 
ATOM     15  C   LIG    1       -1.105  -1.006   0.349  0.00  0.00    +0.030 C 
ENDBRANCH  13  15
ENDBRANCH  10  13
ENDBRANCH   9  10
ENDBRANCH   1   9
TORSDOF 7
ENDMDL
MODEL      325
REMARK  Name = ZINC000622278540
REMARK                            x       y       z     vdW  Elec       q    Type
REMARK                         _______ _______ _______ _____ _____    ______ ____
ROOT
ATOM      1  N   LIG    1        1.532  -2.587   2.751  0.00  0.00    -0.390 N 
ATOM      2  C   LIG    1        0.854  -2.305   4.034  0.00  0.00    +0.250 C 
ATOM      3  C   LIG    1       -0.011  -3.560   4.309  0.00  0.00    +0.080 C 
ATOM      4  C   LIG    1        0.907  -4.695   3.786  0.00  0.00    +0.070 C 
ATOM      5  C   LIG    1        1.596  -4.049   2.569  0.00  0.00    +0.160 C 
ATOM      6  H   LIG    1        2.466  -2.206   2.769  0.00  0.00    +0.420 HD
ENDROOT
BRANCH   1   7
ATOM      7  C   LIG    1        0.772  -1.985   1.648  0.00  0.00    +0.240 C 
BRANCH   7   8
ATOM      8  C   LIG    1        0.843  -0.460   1.753  0.00  0.00    +0.030 C 
BRANCH   8  10
ATOM      9  C   LIG    1        0.123   1.693   0.709  0.00  0.00    +0.030 C 
ATOM     10  C   LIG    1        0.052   0.168   0.604  0.00  0.00    +0.020 C 
ENDBRANCH   8  10
ENDBRANCH   7   8
ENDBRANCH   1   7
BRANCH   5  11
ATOM     11  C   LIG    1        3.056  -4.500   2.497  0.00  0.00    +0.070 C 
BRANCH  11  12
ATOM     12  C   LIG    1        3.678  -4.011   1.187  0.00  0.00    -0.080 C 
ATOM     13  C   LIG    1        2.806  -4.455   0.011  0.00  0.00    +0.030 C 
ATOM     14  C   LIG    1        5.080  -4.603   1.035  0.00  0.00    +0.050 C 
ATOM     15  C   LIG    1        3.768  -2.483   1.206  0.00  0.00    +0.020 C 
ENDBRANCH  11  12
ENDBRANCH   5  11
TORSDOF 5
ENDMDL
MODEL      326
REMARK  Name = ZINC001208655664
REMARK                            x       y       z     vdW  Elec       q    Type
REMARK                         _______ _______ _______ _____ _____    ______ ____
ROOT
ATOM      1  C   LIG    1        1.999  -0.799   0.536  0.00  0.00    +0.030 C 
ENDROOT
BRANCH   1   3
ATOM      2  C   LIG    1        1.074   1.413  -0.166  0.00  0.00    +0.030 C 
ATOM      3  C   LIG    1        0.894  -0.104  -0.261  0.00  0.00    +0.000 C 
BRANCH   3   4
ATOM      4  C   LIG    1        0.974  -0.536  -1.726  0.00  0.00    +0.030 C 
BRANCH   4   5
ATOM      5  C   LIG    1       -0.239   0.006  -2.485  0.00  0.00    -0.070 C 
ATOM      6  C   LIG    1       -1.521  -0.406  -1.758  0.00  0.00    +0.020 C 
ATOM      7  C   LIG    1       -0.252  -0.566  -3.904  0.00  0.00    +0.020 C 
ATOM      8  C   LIG    1       -0.159   1.533  -2.551  0.00  0.00    +0.030 C 
ENDBRANCH   4   5
ENDBRANCH   3   4
ENDBRANCH   1   3
BRANCH   1   9
ATOM      9  C   LIG    1        1.844  -0.465   2.022  0.00  0.00    +0.250 C 
BRANCH   9  10
ATOM     10  N   LIG    1        2.905  -1.133   2.787  0.00  0.00    -0.360 N 
ATOM     11  C   LIG    1        4.210  -0.582   2.400  0.00  0.00    +0.310 C 
ATOM     12  H   LIG    1        2.887  -2.123   2.594  0.00  0.00    +0.420 HD
BRANCH  10  13
ATOM     13  C   LIG    1        2.686  -0.911   4.223  0.00  0.00    +0.090 C 
ATOM     14  C   LIG    1        2.285  -2.119   5.072  0.00  0.00    +0.100 C 
ATOM     15  C   LIG    1        3.692  -1.531   5.195  0.00  0.00    +0.100 C 
ENDBRANCH  10  13
ENDBRANCH   9  10
ENDBRANCH   1   9
TORSDOF 6
ENDMDL
MODEL      327
REMARK  Name = ZINC001173273637
REMARK                            x       y       z     vdW  Elec       q    Type
REMARK                         _______ _______ _______ _____ _____    ______ ____
ROOT
ATOM      1  N   LIG    1        1.475  -3.990  -2.532  0.00  0.00    -0.380 N 
ATOM      2  C   LIG    1        0.101  -4.497  -2.642  0.00  0.00    +0.310 C 
ATOM      3  H   LIG    1        1.890  -4.325  -1.676  0.00  0.00    +0.420 HD
ENDROOT
BRANCH   1   4
ATOM      4  C   LIG    1        2.265  -4.462  -3.677  0.00  0.00    +0.160 C 
ATOM      5  C   LIG    1        2.338  -6.003  -3.668  0.00  0.00    +0.050 C 
ATOM      6  C   LIG    1        3.773  -6.318  -4.158  0.00  0.00    +0.050 C 
ATOM      7  C   LIG    1        4.615  -5.202  -3.491  0.00  0.00    +0.000 C 
ATOM      8  C   LIG    1        3.712  -3.952  -3.565  0.00  0.00    +0.040 C 
BRANCH   7   9
ATOM      9  C   LIG    1        5.914  -4.974  -4.268  0.00  0.00    +0.020 C 
ATOM     10  C   LIG    1        6.802  -6.214  -4.152  0.00  0.00    +0.020 C 
ENDBRANCH   7   9
ENDBRANCH   1   4
BRANCH   1  11
ATOM     11  C   LIG    1        1.455  -2.521  -2.524  0.00  0.00    +0.240 C 
BRANCH  11  12
ATOM     12  C   LIG    1        0.739  -2.027  -1.265  0.00  0.00    +0.030 C 
BRANCH  12  13
ATOM     13  C   LIG    1        0.718  -0.497  -1.257  0.00  0.00    +0.020 C 
BRANCH  13  15
ATOM     14  C   LIG    1       -0.019   1.526   0.010  0.00  0.00    +0.020 C 
ATOM     15  C   LIG    1        0.002  -0.004   0.002  0.00  0.00    +0.010 C 
ENDBRANCH  13  15
ENDBRANCH  12  13
ENDBRANCH  11  12
ENDBRANCH   1  11
TORSDOF 6
ENDMDL
MODEL      328
REMARK  Name = ZINC001173274571
REMARK                            x       y       z     vdW  Elec       q    Type
REMARK                         _______ _______ _______ _____ _____    ______ ____
ROOT
ATOM      1  N   LIG    1       -2.910  -2.751  -0.004  0.00  0.00    -0.380 N 
ATOM      2  H   LIG    1       -3.434  -2.460   0.808  0.00  0.00    +0.420 HD
ENDROOT
BRANCH   1   3
ATOM      3  C   LIG    1       -2.967  -4.214  -0.125  0.00  0.00    +0.150 C 
ATOM      4  C   LIG    1       -2.584  -4.882   1.211  0.00  0.00    +0.030 C 
ATOM      5  C   LIG    1       -3.496  -6.111   1.366  0.00  0.00    +0.040 C 
ATOM      6  C   LIG    1       -4.402  -6.147   0.117  0.00  0.00    +0.000 C 
ATOM      7  C   LIG    1       -4.421  -4.680  -0.384  0.00  0.00    +0.050 C 
BRANCH   6   8
ATOM      8  C   LIG    1       -5.812  -6.607   0.492  0.00  0.00    +0.020 C 
ATOM      9  C   LIG    1       -5.768  -8.067   0.949  0.00  0.00    +0.020 C 
ENDBRANCH   6   8
ENDBRANCH   1   3
BRANCH   1  10
ATOM     10  C   LIG    1       -3.489  -2.137  -1.206  0.00  0.00    +0.240 C 
ATOM     11  C   LIG    1       -2.697  -2.581  -2.437  0.00  0.00    +0.070 C 
ENDBRANCH   1  10
BRANCH   1  12
ATOM     12  C   LIG    1       -1.511  -2.325   0.139  0.00  0.00    +0.240 C 
BRANCH  12  13
ATOM     13  C   LIG    1       -1.460  -0.817   0.390  0.00  0.00    +0.030 C 
BRANCH  13  15
ATOM     14  C   LIG    1        0.047   1.135   0.789  0.00  0.00    +0.030 C 
ATOM     15  C   LIG    1       -0.004  -0.373   0.538  0.00  0.00    +0.020 C 
ENDBRANCH  13  15
ENDBRANCH  12  13
ENDBRANCH   1  12
TORSDOF 6
ENDMDL
MODEL      329
REMARK  Name = ZINC001208725627
REMARK                            x       y       z     vdW  Elec       q    Type
REMARK                         _______ _______ _______ _____ _____    ______ ____
ROOT
ATOM      1  N   LIG    1        3.071  -3.565   1.405  0.00  0.00    -0.380 N 
ATOM      2  H   LIG    1        2.346  -3.312   2.058  0.00  0.00    +0.420 HD
ENDROOT
BRANCH   1   3
ATOM      3  C   LIG    1        3.126  -5.027   1.275  0.00  0.00    +0.160 C 
ATOM      4  C   LIG    1        4.121  -5.405   0.176  0.00  0.00    +0.080 C 
BRANCH   3   5
ATOM      5  C   LIG    1        1.738  -5.559   0.911  0.00  0.00    +0.050 C 
ATOM      6  C   LIG    1        0.762  -5.260   2.051  0.00  0.00    +0.020 C 
ENDBRANCH   3   5
ENDBRANCH   1   3
BRANCH   1   7
ATOM      7  C   LIG    1        2.781  -2.968   0.095  0.00  0.00    +0.250 C 
BRANCH   7   8
ATOM      8  C   LIG    1        2.566  -1.462   0.257  0.00  0.00    +0.070 C 
BRANCH   8  10
ATOM      9  C   LIG    1        1.287  -0.083  -1.300  0.00  0.00    +0.000 C 
ATOM     10  C   LIG    1        2.338  -0.838  -1.095  0.00  0.00    -0.070 C 
BRANCH   9  12
ATOM     11  C   LIG    1        0.194   1.794  -0.104  0.00  0.00    +0.030 C 
ATOM     12  C   LIG    1        0.382   0.277  -0.150  0.00  0.00    +0.040 C 
ENDBRANCH   9  12
ENDBRANCH   8  10
ENDBRANCH   7   8
ENDBRANCH   1   7
BRANCH   1  13
ATOM     13  C   LIG    1        4.365  -3.069   1.893  0.00  0.00    +0.240 C 
BRANCH  13  14
ATOM     14  C   LIG    1        4.605  -3.584   3.314  0.00  0.00    +0.020 C 
ATOM     15  C   LIG    1        5.886  -2.960   3.873  0.00  0.00    +0.060 C 
ENDBRANCH  13  14
ENDBRANCH   1  13
TORSDOF 8
ENDMDL
MODEL      330
REMARK  Name = ZINC001208725928
REMARK                            x       y       z     vdW  Elec       q    Type
REMARK                         _______ _______ _______ _____ _____    ______ ____
ROOT
ATOM      1  N   LIG    1       -2.742  -3.724   1.735  0.00  0.00    -0.370 N 
ATOM      2  C   LIG    1       -3.654  -3.066   2.654  0.00  0.00    +0.150 C 
ATOM      3  C   LIG    1       -5.051  -3.671   2.667  0.00  0.00    +0.070 C 
ATOM      4  C   LIG    1       -4.975  -5.185   2.869  0.00  0.00    +0.030 C 
ATOM      5  C   LIG    1       -4.148  -5.782   1.731  0.00  0.00    +0.070 C 
ATOM      6  C   LIG    1       -3.086  -2.999   4.072  0.00  0.00    +0.080 C 
ATOM      7  C   LIG    1       -2.751  -5.177   1.713  0.00  0.00    +0.150 C 
ATOM      8  C   LIG    1       -1.896  -5.769   2.834  0.00  0.00    +0.080 C 
ATOM      9  H   LIG    1       -2.968  -3.398   0.787  0.00  0.00    +0.420 HD
ENDROOT
BRANCH   1  10
ATOM     10  C   LIG    1       -1.366  -3.259   2.011  0.00  0.00    +0.260 C 
BRANCH  10  11
ATOM     11  C   LIG    1       -1.289  -1.744   1.805  0.00  0.00    +0.070 C 
BRANCH  11  13
ATOM     12  C   LIG    1        0.757  -0.563   1.192  0.00  0.00    +0.010 C 
ATOM     13  C   LIG    1        0.113  -1.270   2.087  0.00  0.00    -0.070 C 
BRANCH  12  15
ATOM     14  C   LIG    1        0.248   1.428  -0.196  0.00  0.00    +0.030 C 
ATOM     15  C   LIG    1        0.043  -0.081  -0.044  0.00  0.00    +0.040 C 
ENDBRANCH  12  15
ENDBRANCH  11  13
ENDBRANCH  10  11
ENDBRANCH   1  10
TORSDOF 4
ENDMDL
MODEL      331
REMARK  Name = ZINC001173273639
REMARK                            x       y       z     vdW  Elec       q    Type
REMARK                         _______ _______ _______ _____ _____    ______ ____
ROOT
ATOM      1  N   LIG    1        1.475  -3.990  -2.532  0.00  0.00    -0.380 N 
ATOM      2  C   LIG    1        0.101  -4.497  -2.642  0.00  0.00    +0.310 C 
ATOM      3  H   LIG    1        1.890  -4.325  -1.676  0.00  0.00    +0.420 HD
ENDROOT
BRANCH   1   4
ATOM      4  C   LIG    1        2.265  -4.462  -3.677  0.00  0.00    +0.160 C 
ATOM      5  C   LIG    1        3.734  -4.010  -3.543  0.00  0.00    +0.030 C 
ATOM      6  C   LIG    1        4.600  -5.168  -4.066  0.00  0.00    +0.040 C 
ATOM      7  C   LIG    1        3.628  -6.285  -4.500  0.00  0.00    +0.000 C 
ATOM      8  C   LIG    1        2.340  -6.009  -3.682  0.00  0.00    +0.050 C 
BRANCH   7   9
ATOM      9  C   LIG    1        4.203  -7.660  -4.153  0.00  0.00    +0.020 C 
ATOM     10  C   LIG    1        5.451  -7.919  -4.999  0.00  0.00    +0.020 C 
ENDBRANCH   7   9
ENDBRANCH   1   4
BRANCH   1  11
ATOM     11  C   LIG    1        1.455  -2.521  -2.524  0.00  0.00    +0.250 C 
BRANCH  11  12
ATOM     12  C   LIG    1        0.739  -2.027  -1.265  0.00  0.00    +0.030 C 
BRANCH  12  13
ATOM     13  C   LIG    1        0.718  -0.497  -1.257  0.00  0.00    +0.020 C 
BRANCH  13  15
ATOM     14  C   LIG    1       -0.019   1.526   0.010  0.00  0.00    +0.020 C 
ATOM     15  C   LIG    1        0.002  -0.004   0.002  0.00  0.00    +0.010 C 
ENDBRANCH  13  15
ENDBRANCH  12  13
ENDBRANCH  11  12
ENDBRANCH   1  11
TORSDOF 6
ENDMDL
MODEL      332
REMARK  Name = ZINC001173273641
REMARK                            x       y       z     vdW  Elec       q    Type
REMARK                         _______ _______ _______ _____ _____    ______ ____
ROOT
ATOM      1  N   LIG    1        1.475  -3.990  -2.532  0.00  0.00    -0.380 N 
ATOM      2  C   LIG    1        0.101  -4.497  -2.642  0.00  0.00    +0.310 C 
ATOM      3  H   LIG    1        1.890  -4.325  -1.676  0.00  0.00    +0.420 HD
ENDROOT
BRANCH   1   4
ATOM      4  C   LIG    1        2.265  -4.462  -3.677  0.00  0.00    +0.150 C 
ATOM      5  C   LIG    1        2.388  -6.006  -3.659  0.00  0.00    +0.040 C 
ATOM      6  C   LIG    1        3.667  -6.293  -4.472  0.00  0.00    +0.050 C 
ATOM      7  C   LIG    1        4.526  -5.018  -4.406  0.00  0.00    +0.000 C 
ATOM      8  C   LIG    1        3.737  -3.996  -3.558  0.00  0.00    +0.040 C 
BRANCH   7   9
ATOM      9  C   LIG    1        5.871  -5.325  -3.746  0.00  0.00    +0.010 C 
ATOM     10  C   LIG    1        6.678  -6.264  -4.646  0.00  0.00    +0.020 C 
ENDBRANCH   7   9
ENDBRANCH   1   4
BRANCH   1  11
ATOM     11  C   LIG    1        1.455  -2.521  -2.524  0.00  0.00    +0.250 C 
BRANCH  11  12
ATOM     12  C   LIG    1        0.739  -2.027  -1.265  0.00  0.00    +0.030 C 
BRANCH  12  13
ATOM     13  C   LIG    1        0.718  -0.497  -1.257  0.00  0.00    +0.020 C 
BRANCH  13  15
ATOM     14  C   LIG    1       -0.019   1.526   0.010  0.00  0.00    +0.020 C 
ATOM     15  C   LIG    1        0.002  -0.004   0.002  0.00  0.00    +0.010 C 
ENDBRANCH  13  15
ENDBRANCH  12  13
ENDBRANCH  11  12
ENDBRANCH   1  11
TORSDOF 6
ENDMDL
MODEL      333
REMARK  Name = ZINC001173274573
REMARK                            x       y       z     vdW  Elec       q    Type
REMARK                         _______ _______ _______ _____ _____    ______ ____
ROOT
ATOM      1  N   LIG    1       -2.918  -2.760  -0.019  0.00  0.00    -0.380 N 
ATOM      2  H   LIG    1       -3.450  -2.483   0.792  0.00  0.00    +0.420 HD
ENDROOT
BRANCH   1   3
ATOM      3  C   LIG    1       -2.986  -4.219  -0.175  0.00  0.00    +0.150 C 
ATOM      4  C   LIG    1       -2.605  -4.924   1.150  0.00  0.00    +0.040 C 
ATOM      5  C   LIG    1       -3.292  -6.306   1.012  0.00  0.00    +0.050 C 
ATOM      6  C   LIG    1       -4.633  -5.994   0.316  0.00  0.00    +0.000 C 
ATOM      7  C   LIG    1       -4.438  -4.667  -0.442  0.00  0.00    +0.040 C 
BRANCH   6   8
ATOM      8  C   LIG    1       -4.985  -7.111  -0.668  0.00  0.00    +0.020 C 
ATOM      9  C   LIG    1       -5.264  -8.402   0.105  0.00  0.00    +0.020 C 
ENDBRANCH   6   8
ENDBRANCH   1   3
BRANCH   1  10
ATOM     10  C   LIG    1       -3.476  -2.113  -1.214  0.00  0.00    +0.240 C 
ATOM     11  C   LIG    1       -2.663  -2.525  -2.443  0.00  0.00    +0.070 C 
ENDBRANCH   1  10
BRANCH   1  12
ATOM     12  C   LIG    1       -1.517  -2.350   0.151  0.00  0.00    +0.240 C 
BRANCH  12  13
ATOM     13  C   LIG    1       -1.456  -0.849   0.437  0.00  0.00    +0.030 C 
BRANCH  13  15
ATOM     14  C   LIG    1        0.063   1.080   0.901  0.00  0.00    +0.030 C 
ATOM     15  C   LIG    1        0.002  -0.422   0.614  0.00  0.00    +0.020 C 
ENDBRANCH  13  15
ENDBRANCH  12  13
ENDBRANCH   1  12
TORSDOF 6
ENDMDL
MODEL      334
REMARK  Name = ZINC001208690284
REMARK                            x       y       z     vdW  Elec       q    Type
REMARK                         _______ _______ _______ _____ _____    ______ ____
ROOT
ATOM      1  N   LIG    1        1.475  -3.990  -2.532  0.00  0.00    -0.390 N 
ATOM      2  C   LIG    1        0.101  -4.497  -2.642  0.00  0.00    +0.300 C 
ATOM      3  H   LIG    1        1.890  -4.325  -1.676  0.00  0.00    +0.420 HD
ENDROOT
BRANCH   1   4
ATOM      4  C   LIG    1        1.455  -2.521  -2.524  0.00  0.00    +0.250 C 
BRANCH   4   5
ATOM      5  C   LIG    1        0.739  -2.027  -1.265  0.00  0.00    +0.030 C 
BRANCH   5   6
ATOM      6  C   LIG    1        0.718  -0.497  -1.257  0.00  0.00    +0.020 C 
BRANCH   6   8
ATOM      7  C   LIG    1       -0.019   1.526   0.010  0.00  0.00    +0.020 C 
ATOM      8  C   LIG    1        0.002  -0.004   0.002  0.00  0.00    +0.010 C 
ENDBRANCH   6   8
ENDBRANCH   5   6
ENDBRANCH   4   5
ENDBRANCH   1   4
BRANCH   1   9
ATOM      9  C   LIG    1        2.265  -4.462  -3.677  0.00  0.00    +0.250 C 
BRANCH   9  10
ATOM     10  C   LIG    1        2.390  -5.986  -3.615  0.00  0.00    +0.040 C 
BRANCH  10  11
ATOM     11  C   LIG    1        3.213  -6.478  -4.808  0.00  0.00    +0.000 C 
ATOM     12  C   LIG    1        4.698  -6.066  -4.649  0.00  0.00    +0.010 C 
ATOM     13  C   LIG    1        5.437  -7.103  -5.531  0.00  0.00    +0.010 C 
ATOM     14  C   LIG    1        4.663  -8.417  -5.299  0.00  0.00    +0.010 C 
ATOM     15  C   LIG    1        3.250  -8.020  -4.839  0.00  0.00    +0.020 C 
ENDBRANCH  10  11
ENDBRANCH   9  10
ENDBRANCH   1   9
TORSDOF 7
ENDMDL
MODEL      335
REMARK  Name = ZINC001173273642
REMARK                            x       y       z     vdW  Elec       q    Type
REMARK                         _______ _______ _______ _____ _____    ______ ____
ROOT
ATOM      1  N   LIG    1        1.475  -3.990  -2.532  0.00  0.00    -0.380 N 
ATOM      2  C   LIG    1        0.101  -4.497  -2.642  0.00  0.00    +0.310 C 
ATOM      3  H   LIG    1        1.890  -4.325  -1.676  0.00  0.00    +0.420 HD
ENDROOT
BRANCH   1   4
ATOM      4  C   LIG    1        2.265  -4.462  -3.677  0.00  0.00    +0.160 C 
ATOM      5  C   LIG    1        3.740  -4.008  -3.542  0.00  0.00    +0.040 C 
ATOM      6  C   LIG    1        4.497  -5.040  -4.414  0.00  0.00    +0.050 C 
ATOM      7  C   LIG    1        3.762  -6.371  -4.149  0.00  0.00    +0.000 C 
ATOM      8  C   LIG    1        2.340  -6.003  -3.682  0.00  0.00    +0.040 C 
BRANCH   7   9
ATOM      9  C   LIG    1        3.692  -7.197  -5.434  0.00  0.00    +0.020 C 
ATOM     10  C   LIG    1        5.103  -7.631  -5.838  0.00  0.00    +0.020 C 
ENDBRANCH   7   9
ENDBRANCH   1   4
BRANCH   1  11
ATOM     11  C   LIG    1        1.455  -2.521  -2.524  0.00  0.00    +0.250 C 
BRANCH  11  12
ATOM     12  C   LIG    1        0.739  -2.027  -1.265  0.00  0.00    +0.030 C 
BRANCH  12  13
ATOM     13  C   LIG    1        0.718  -0.497  -1.257  0.00  0.00    +0.020 C 
BRANCH  13  15
ATOM     14  C   LIG    1       -0.019   1.526   0.010  0.00  0.00    +0.020 C 
ATOM     15  C   LIG    1        0.002  -0.004   0.002  0.00  0.00    +0.010 C 
ENDBRANCH  13  15
ENDBRANCH  12  13
ENDBRANCH  11  12
ENDBRANCH   1  11
TORSDOF 6
ENDMDL
MODEL      336
REMARK  Name = ZINC001173274570
REMARK                            x       y       z     vdW  Elec       q    Type
REMARK                         _______ _______ _______ _____ _____    ______ ____
ROOT
ATOM      1  N   LIG    1       -2.896  -2.700   0.038  0.00  0.00    -0.380 N 
ATOM      2  H   LIG    1       -3.446  -2.337   0.802  0.00  0.00    +0.420 HD
ENDROOT
BRANCH   1   3
ATOM      3  C   LIG    1       -2.931  -4.169   0.065  0.00  0.00    +0.160 C 
ATOM      4  C   LIG    1       -4.376  -4.667  -0.142  0.00  0.00    +0.050 C 
ATOM      5  C   LIG    1       -4.489  -5.903   0.785  0.00  0.00    +0.050 C 
ATOM      6  C   LIG    1       -3.671  -5.473   2.029  0.00  0.00    +0.000 C 
ATOM      7  C   LIG    1       -2.482  -4.681   1.445  0.00  0.00    +0.040 C 
BRANCH   6   8
ATOM      8  C   LIG    1       -3.176  -6.701   2.795  0.00  0.00    +0.020 C 
ATOM      9  C   LIG    1       -4.372  -7.448   3.389  0.00  0.00    +0.020 C 
ENDBRANCH   6   8
ENDBRANCH   1   3
BRANCH   1  10
ATOM     10  C   LIG    1       -3.449  -2.221  -1.235  0.00  0.00    +0.240 C 
ATOM     11  C   LIG    1       -2.642  -2.807  -2.395  0.00  0.00    +0.070 C 
ENDBRANCH   1  10
BRANCH   1  12
ATOM     12  C   LIG    1       -1.507  -2.241   0.172  0.00  0.00    +0.240 C 
BRANCH  12  13
ATOM     13  C   LIG    1       -1.482  -0.715   0.270  0.00  0.00    +0.030 C 
BRANCH  13  15
ATOM     14  C   LIG    1       -0.010   1.290   0.506  0.00  0.00    +0.030 C 
ATOM     15  C   LIG    1       -0.035  -0.236   0.409  0.00  0.00    +0.020 C 
ENDBRANCH  13  15
ENDBRANCH  12  13
ENDBRANCH   1  12
TORSDOF 6
ENDMDL
MODEL      337
REMARK  Name = ZINC001208694070
REMARK                            x       y       z     vdW  Elec       q    Type
REMARK                         _______ _______ _______ _____ _____    ______ ____
ROOT
ATOM      1  N   LIG    1       -0.294  -0.395  -2.297  0.00  0.00    -0.380 N 
ATOM      2  C   LIG    1       -0.445   1.062  -2.181  0.00  0.00    +0.330 C 
ATOM      3  H   LIG    1       -1.204  -0.830  -2.279  0.00  0.00    +0.420 HD
ENDROOT
BRANCH   1   4
ATOM      4  C   LIG    1        0.509  -0.894  -1.173  0.00  0.00    +0.160 C 
BRANCH   4   6
ATOM      5  C   LIG    1        2.839  -0.901  -2.075  0.00  0.00    +0.040 C 
ATOM      6  C   LIG    1        1.859  -0.175  -1.151  0.00  0.00    +0.050 C 
ENDBRANCH   4   6
BRANCH   4   7
ATOM      7  C   LIG    1       -0.230  -0.630   0.140  0.00  0.00    +0.050 C 
ATOM      8  C   LIG    1       -1.529  -1.439   0.166  0.00  0.00    +0.030 C 
ENDBRANCH   4   7
ENDBRANCH   1   4
BRANCH   1   9
ATOM      9  C   LIG    1        0.379  -0.718  -3.562  0.00  0.00    +0.250 C 
BRANCH   9  10
ATOM     10  C   LIG    1       -0.549  -0.386  -4.732  0.00  0.00    +0.040 C 
BRANCH  10  11
ATOM     11  C   LIG    1        0.152  -0.723  -6.050  0.00  0.00    -0.010 C 
ATOM     12  C   LIG    1        0.282  -2.257  -6.218  0.00  0.00    +0.010 C 
ATOM     13  C   LIG    1        0.414  -2.423  -7.753  0.00  0.00    +0.010 C 
ATOM     14  C   LIG    1       -0.546  -1.363  -8.332  0.00  0.00    +0.010 C 
ATOM     15  C   LIG    1       -0.713  -0.283  -7.249  0.00  0.00    +0.020 C 
ENDBRANCH  10  11
ENDBRANCH   9  10
ENDBRANCH   1   9
TORSDOF 6
ENDMDL
MODEL      338
REMARK  Name = ZINC001173292851
REMARK                            x       y       z     vdW  Elec       q    Type
REMARK                         _______ _______ _______ _____ _____    ______ ____
ROOT
ATOM      1  N   LIG    1        2.408  -0.463   1.171  0.00  0.00    -0.380 N 
ATOM      2  C   LIG    1        2.598   0.993   1.191  0.00  0.00    +0.300 C 
ATOM      3  H   LIG    1        2.941  -0.861   0.412  0.00  0.00    +0.420 HD
ENDROOT
BRANCH   1   4
ATOM      4  C   LIG    1        2.866  -1.035   2.444  0.00  0.00    +0.150 C 
ATOM      5  C   LIG    1        2.643  -2.561   2.462  0.00  0.00    +0.030 C 
ATOM      6  C   LIG    1        3.853  -3.174   3.190  0.00  0.00    +0.040 C 
ATOM      7  C   LIG    1        4.768  -1.998   3.589  0.00  0.00    +0.000 C 
ATOM      8  C   LIG    1        4.399  -0.870   2.592  0.00  0.00    +0.040 C 
BRANCH   7   9
ATOM      9  C   LIG    1        6.239  -2.390   3.439  0.00  0.00    +0.020 C 
ATOM     10  C   LIG    1        6.584  -3.478   4.458  0.00  0.00    +0.020 C 
ENDBRANCH   7   9
ENDBRANCH   1   4
BRANCH   1  11
ATOM     11  C   LIG    1        0.983  -0.768   0.982  0.00  0.00    +0.160 C 
BRANCH  11  13
ATOM     12  C   LIG    1        0.363  -0.111   3.311  0.00  0.00    +0.030 C 
ATOM     13  C   LIG    1        0.140   0.188   1.827  0.00  0.00    +0.050 C 
ENDBRANCH  11  13
BRANCH  11  14
ATOM     14  C   LIG    1        0.618  -0.602  -0.495  0.00  0.00    +0.050 C 
ATOM     15  C   LIG    1        1.485  -1.533  -1.344  0.00  0.00    +0.040 C 
ENDBRANCH  11  14
ENDBRANCH   1  11
TORSDOF 5
ENDMDL
MODEL      339
REMARK  Name = ZINC001173288201
REMARK                            x       y       z     vdW  Elec       q    Type
REMARK                         _______ _______ _______ _____ _____    ______ ____
ROOT
ATOM      1  N   LIG    1       -2.439  -3.451   1.570  0.00  0.00    -0.380 N 
ATOM      2  C   LIG    1       -1.212  -4.162   1.187  0.00  0.00    +0.320 C 
ATOM      3  H   LIG    1       -3.176  -3.676   0.918  0.00  0.00    +0.420 HD
ENDROOT
BRANCH   1   7
ATOM      4  C   LIG    1       -2.526  -0.153  -0.053  0.00  0.00    +0.000 C 
ATOM      5  C   LIG    1       -3.241   0.161   1.277  0.00  0.00    +0.050 C 
ATOM      6  C   LIG    1       -3.484  -1.229   1.915  0.00  0.00    +0.040 C 
ATOM      7  C   LIG    1       -2.193  -2.003   1.550  0.00  0.00    +0.160 C 
ATOM      8  C   LIG    1       -1.860  -1.529   0.119  0.00  0.00    +0.040 C 
BRANCH   4  10
ATOM      9  C   LIG    1       -2.148   2.252  -0.617  0.00  0.00    +0.020 C 
ATOM     10  C   LIG    1       -1.465   0.911  -0.342  0.00  0.00    +0.020 C 
ENDBRANCH   4  10
ENDBRANCH   1   7
BRANCH   1  11
ATOM     11  C   LIG    1       -2.840  -3.861   2.923  0.00  0.00    +0.260 C 
BRANCH  11  12
ATOM     12  C   LIG    1       -3.353  -5.302   2.888  0.00  0.00    -0.090 C 
ATOM     13  C   LIG    1       -4.437  -5.432   1.817  0.00  0.00    +0.040 C 
ATOM     14  C   LIG    1       -3.938  -5.668   4.254  0.00  0.00    +0.070 C 
ATOM     15  C   LIG    1       -2.195  -6.247   2.559  0.00  0.00    +0.050 C 
ENDBRANCH  11  12
ENDBRANCH   1  11
TORSDOF 4
ENDMDL
MODEL      340
REMARK  Name = ZINC001208725628
REMARK                            x       y       z     vdW  Elec       q    Type
REMARK                         _______ _______ _______ _____ _____    ______ ____
ROOT
ATOM      1  N   LIG    1        2.003  -3.828   1.850  0.00  0.00    -0.380 N 
ATOM      2  H   LIG    1        1.212  -3.748   2.471  0.00  0.00    +0.420 HD
ENDROOT
BRANCH   1   3
ATOM      3  C   LIG    1        2.441  -5.229   1.791  0.00  0.00    +0.160 C 
ATOM      4  C   LIG    1        3.724  -5.328   0.965  0.00  0.00    +0.090 C 
BRANCH   3   5
ATOM      5  C   LIG    1        2.705  -5.741   3.208  0.00  0.00    +0.050 C 
ATOM      6  C   LIG    1        1.399  -5.736   4.005  0.00  0.00    +0.030 C 
ENDBRANCH   3   5
ENDBRANCH   1   3
BRANCH   1   7
ATOM      7  C   LIG    1        1.617  -3.378   0.506  0.00  0.00    +0.250 C 
BRANCH   7   8
ATOM      8  C   LIG    1        0.400  -4.174   0.031  0.00  0.00    +0.070 C 
BRANCH   8  10
ATOM      9  C   LIG    1       -0.216  -4.421  -2.318  0.00  0.00    +0.000 C 
ATOM     10  C   LIG    1       -0.076  -3.624  -1.288  0.00  0.00    -0.070 C 
BRANCH   9  12
ATOM     11  C   LIG    1       -1.322  -6.603  -2.727  0.00  0.00    +0.030 C 
ATOM     12  C   LIG    1       -0.089  -5.912  -2.140  0.00  0.00    +0.040 C 
ENDBRANCH   9  12
ENDBRANCH   8  10
ENDBRANCH   7   8
ENDBRANCH   1   7
BRANCH   1  13
ATOM     13  C   LIG    1        3.103  -2.992   2.349  0.00  0.00    +0.240 C 
BRANCH  13  14
ATOM     14  C   LIG    1        2.601  -1.562   2.563  0.00  0.00    +0.030 C 
ATOM     15  C   LIG    1        3.766  -0.674   3.004  0.00  0.00    +0.060 C 
ENDBRANCH  13  14
ENDBRANCH   1  13
TORSDOF 8
ENDMDL
MODEL      341
REMARK  Name = ZINC001208736666
REMARK                            x       y       z     vdW  Elec       q    Type
REMARK                         _______ _______ _______ _____ _____    ______ ____
ROOT
ATOM      1  N   LIG    1       -0.148  -0.064  -2.570  0.00  0.00    -0.380 N 
ATOM      2  H   LIG    1       -1.083  -0.432  -2.480  0.00  0.00    +0.420 HD
ENDROOT
BRANCH   1   3
ATOM      3  C   LIG    1       -0.209   1.396  -2.722  0.00  0.00    +0.240 C 
ATOM      4  C   LIG    1       -1.138   1.749  -3.885  0.00  0.00    +0.080 C 
ENDBRANCH   1   3
BRANCH   1   5
ATOM      5  C   LIG    1        0.628  -0.399  -1.368  0.00  0.00    +0.160 C 
BRANCH   5   7
ATOM      6  C   LIG    1        2.753   0.486  -2.339  0.00  0.00    +0.030 C 
ATOM      7  C   LIG    1        1.755   0.620  -1.188  0.00  0.00    +0.050 C 
ENDBRANCH   5   7
BRANCH   5   8
ATOM      8  C   LIG    1       -0.289  -0.367  -0.144  0.00  0.00    +0.050 C 
ATOM      9  C   LIG    1       -1.322  -1.492  -0.251  0.00  0.00    +0.030 C 
ENDBRANCH   5   8
ENDBRANCH   1   5
BRANCH   1  10
ATOM     10  C   LIG    1        0.499  -0.652  -3.750  0.00  0.00    +0.230 C 
BRANCH  10  11
ATOM     11  C   LIG    1        0.435  -2.178  -3.659  0.00  0.00    +0.020 C 
BRANCH  11  12
ATOM     12  C   LIG    1        1.201  -2.792  -4.832  0.00  0.00    +0.030 C 
BRANCH  12  13
ATOM     13  C   LIG    1        1.137  -4.318  -4.741  0.00  0.00    -0.030 C 
ATOM     14  C   LIG    1        2.006  -4.931  -5.841  0.00  0.00    +0.030 C 
ATOM     15  C   LIG    1       -0.310  -4.779  -4.919  0.00  0.00    +0.020 C 
ENDBRANCH  12  13
ENDBRANCH  11  12
ENDBRANCH  10  11
ENDBRANCH   1  10
TORSDOF 8
ENDMDL
MODEL      342
REMARK  Name = ZINC001208736155
REMARK                            x       y       z     vdW  Elec       q    Type
REMARK                         _______ _______ _______ _____ _____    ______ ____
ROOT
ATOM      1  N   LIG    1       -4.246  -0.274  -2.524  0.00  0.00    -0.370 N 
ATOM      2  C   LIG    1       -3.568  -0.909  -3.655  0.00  0.00    +0.240 C 
ATOM      3  C   LIG    1       -4.197  -0.422  -4.959  0.00  0.00    +0.060 C 
ATOM      4  C   LIG    1       -5.673  -0.798  -5.008  0.00  0.00    -0.010 C 
ATOM      5  C   LIG    1       -6.412  -0.398  -3.743  0.00  0.00    +0.060 C 
ATOM      6  C   LIG    1       -5.839  -2.288  -5.305  0.00  0.00    +0.040 C 
ATOM      7  C   LIG    1       -5.654  -0.651  -2.453  0.00  0.00    +0.160 C 
ATOM      8  C   LIG    1       -5.806  -2.099  -1.989  0.00  0.00    +0.080 C 
ATOM      9  H   LIG    1       -4.176   0.734  -2.625  0.00  0.00    +0.420 HD
ENDROOT
BRANCH   1  10
ATOM     10  C   LIG    1       -3.571  -0.661  -1.275  0.00  0.00    +0.250 C 
BRANCH  10  11
ATOM     11  C   LIG    1       -2.135  -0.131  -1.286  0.00  0.00    +0.030 C 
BRANCH  11  12
ATOM     12  C   LIG    1       -1.433  -0.534   0.013  0.00  0.00    +0.030 C 
BRANCH  12  14
ATOM     13  C   LIG    1       -0.019   1.526   0.010  0.00  0.00    +0.020 C 
ATOM     14  C   LIG    1        0.002  -0.004   0.002  0.00  0.00    -0.030 C 
ATOM     15  C   LIG    1        0.742  -0.511   1.242  0.00  0.00    +0.030 C 
ENDBRANCH  12  14
ENDBRANCH  11  12
ENDBRANCH  10  11
ENDBRANCH   1  10
TORSDOF 4
ENDMDL
MODEL      343
REMARK  Name = ZINC001208734492
REMARK                            x       y       z     vdW  Elec       q    Type
REMARK                         _______ _______ _______ _____ _____    ______ ____
ROOT
ATOM      1  N   LIG    1       -2.770  -3.551   1.811  0.00  0.00    -0.390 N 
ATOM      2  H   LIG    1       -3.324  -2.928   2.379  0.00  0.00    +0.420 HD
ENDROOT
BRANCH   1   3
ATOM      3  C   LIG    1       -1.365  -3.122   1.840  0.00  0.00    +0.250 C 
BRANCH   3   4
ATOM      4  C   LIG    1       -1.270  -1.657   1.409  0.00  0.00    +0.070 C 
BRANCH   4   6
ATOM      5  C   LIG    1        0.712  -0.671   0.378  0.00  0.00    +0.000 C 
ATOM      6  C   LIG    1        0.171  -1.217   1.439  0.00  0.00    -0.070 C 
BRANCH   5   8
ATOM      7  C   LIG    1        0.078   1.134  -1.199  0.00  0.00    +0.030 C 
ATOM      8  C   LIG    1       -0.146  -0.329  -0.813  0.00  0.00    +0.040 C 
ENDBRANCH   5   8
ENDBRANCH   4   6
ENDBRANCH   3   4
ENDBRANCH   1   3
BRANCH   1   9
ATOM      9  C   LIG    1       -3.262  -3.520   0.427  0.00  0.00    +0.250 C 
BRANCH   9  10
ATOM     10  C   LIG    1       -4.760  -3.832   0.412  0.00  0.00    -0.030 C 
ATOM     11  C   LIG    1       -5.258  -3.873  -1.034  0.00  0.00    +0.070 C 
ATOM     12  C   LIG    1       -5.515  -2.746   1.181  0.00  0.00    +0.030 C 
ENDBRANCH   9  10
ENDBRANCH   1   9
BRANCH   1  13
ATOM     13  C   LIG    1       -2.876  -4.918   2.338  0.00  0.00    +0.240 C 
BRANCH  13  14
ATOM     14  C   LIG    1       -2.525  -4.919   3.827  0.00  0.00    +0.030 C 
ATOM     15  C   LIG    1       -2.561  -6.353   4.359  0.00  0.00    +0.060 C 
ENDBRANCH  13  14
ENDBRANCH   1  13
TORSDOF 8
ENDMDL
MODEL      344
REMARK  Name = ZINC001208733482
REMARK                            x       y       z     vdW  Elec       q    Type
REMARK                         _______ _______ _______ _____ _____    ______ ____
ROOT
ATOM      1  N   LIG    1        0.729  -1.989  -1.439  0.00  0.00    -0.380 N 
ATOM      2  H   LIG    1        1.021  -2.309  -0.527  0.00  0.00    +0.420 HD
ENDROOT
BRANCH   1   3
ATOM      3  C   LIG    1        1.674  -2.474  -2.454  0.00  0.00    +0.160 C 
ATOM      4  C   LIG    1        1.153  -2.117  -3.847  0.00  0.00    +0.080 C 
BRANCH   3   5
ATOM      5  C   LIG    1        1.815  -3.993  -2.335  0.00  0.00    +0.050 C 
ATOM      6  C   LIG    1        2.415  -4.344  -0.972  0.00  0.00    +0.020 C 
ENDBRANCH   3   5
ENDBRANCH   1   3
BRANCH   1   7
ATOM      7  C   LIG    1        0.702  -0.520  -1.457  0.00  0.00    +0.240 C 
BRANCH   7   9
ATOM      8  C   LIG    1        2.060   1.547  -1.109  0.00  0.00    +0.060 C 
ATOM      9  C   LIG    1        2.060   0.021  -1.007  0.00  0.00    +0.020 C 
ENDBRANCH   7   9
ENDBRANCH   1   7
BRANCH   1  10
ATOM     10  C   LIG    1       -0.614  -2.507  -1.733  0.00  0.00    +0.240 C 
BRANCH  10  11
ATOM     11  C   LIG    1       -1.567  -2.128  -0.598  0.00  0.00    +0.030 C 
BRANCH  11  12
ATOM     12  C   LIG    1       -2.930  -2.779  -0.838  0.00  0.00    +0.030 C 
BRANCH  12  13
ATOM     13  C   LIG    1       -3.884  -2.400   0.298  0.00  0.00    -0.030 C 
ATOM     14  C   LIG    1       -3.375  -2.998   1.611  0.00  0.00    +0.020 C 
ATOM     15  C   LIG    1       -5.280  -2.947  -0.005  0.00  0.00    +0.030 C 
ENDBRANCH  12  13
ENDBRANCH  11  12
ENDBRANCH  10  11
ENDBRANCH   1  10
TORSDOF 8
ENDMDL
MODEL      345
REMARK  Name = ZINC001208736501
REMARK                            x       y       z     vdW  Elec       q    Type
REMARK                         _______ _______ _______ _____ _____    ______ ____
ROOT
ATOM      1  N   LIG    1       -2.834  -4.051  -0.239  0.00  0.00    -0.390 N 
ATOM      2  C   LIG    1       -2.219  -4.649   0.965  0.00  0.00    +0.250 C 
ATOM      3  C   LIG    1       -3.414  -5.018   1.878  0.00  0.00    +0.080 C 
ATOM      4  C   LIG    1       -4.468  -5.489   0.841  0.00  0.00    +0.070 C 
ATOM      5  C   LIG    1       -4.215  -4.554  -0.357  0.00  0.00    +0.160 C 
ATOM      6  H   LIG    1       -2.305  -4.314  -1.057  0.00  0.00    +0.420 HD
ENDROOT
BRANCH   5   7
ATOM      7  C   LIG    1       -4.375  -5.331  -1.665  0.00  0.00    -0.020 C 
ATOM      8  C   LIG    1       -4.087  -4.403  -2.848  0.00  0.00    +0.030 C 
ATOM      9  C   LIG    1       -5.806  -5.862  -1.771  0.00  0.00    +0.070 C 
ENDBRANCH   5   7
BRANCH   1  10
ATOM     10  C   LIG    1       -2.851  -2.587  -0.110  0.00  0.00    +0.250 C 
BRANCH  10  11
ATOM     11  C   LIG    1       -1.416  -2.058  -0.121  0.00  0.00    +0.030 C 
BRANCH  11  12
ATOM     12  C   LIG    1       -1.433  -0.534   0.013  0.00  0.00    +0.030 C 
BRANCH  12  14
ATOM     13  C   LIG    1       -0.019   1.526   0.010  0.00  0.00    +0.030 C 
ATOM     14  C   LIG    1        0.002  -0.004   0.002  0.00  0.00    -0.030 C 
ATOM     15  C   LIG    1        0.742  -0.511   1.242  0.00  0.00    +0.020 C 
ENDBRANCH  12  14
ENDBRANCH  11  12
ENDBRANCH  10  11
ENDBRANCH   1  10
TORSDOF 5
ENDMDL
MODEL      346
REMARK  Name = ZINC001208736158
REMARK                            x       y       z     vdW  Elec       q    Type
REMARK                         _______ _______ _______ _____ _____    ______ ____
ROOT
ATOM      1  N   LIG    1       -4.245  -0.274  -2.522  0.00  0.00    -0.380 N 
ATOM      2  C   LIG    1       -3.590  -0.938  -3.656  0.00  0.00    +0.250 C 
ATOM      3  C   LIG    1       -4.236  -0.476  -4.964  0.00  0.00    +0.060 C 
ATOM      4  C   LIG    1       -5.724  -0.838  -4.947  0.00  0.00    -0.010 C 
ATOM      5  C   LIG    1       -6.381  -0.202  -3.719  0.00  0.00    +0.060 C 
ATOM      6  C   LIG    1       -6.393  -0.311  -6.218  0.00  0.00    +0.050 C 
ATOM      7  C   LIG    1       -5.655  -0.675  -2.458  0.00  0.00    +0.160 C 
ATOM      8  C   LIG    1       -6.307  -0.042  -1.227  0.00  0.00    +0.080 C 
ATOM      9  H   LIG    1       -4.185   0.726  -2.639  0.00  0.00    +0.420 HD
ENDROOT
BRANCH   1  10
ATOM     10  C   LIG    1       -3.571  -0.661  -1.275  0.00  0.00    +0.240 C 
BRANCH  10  11
ATOM     11  C   LIG    1       -2.135  -0.131  -1.286  0.00  0.00    +0.030 C 
BRANCH  11  12
ATOM     12  C   LIG    1       -1.433  -0.534   0.013  0.00  0.00    +0.030 C 
BRANCH  12  14
ATOM     13  C   LIG    1       -0.019   1.526   0.010  0.00  0.00    +0.020 C 
ATOM     14  C   LIG    1        0.002  -0.004   0.002  0.00  0.00    -0.030 C 
ATOM     15  C   LIG    1        0.742  -0.511   1.242  0.00  0.00    +0.030 C 
ENDBRANCH  12  14
ENDBRANCH  11  12
ENDBRANCH  10  11
ENDBRANCH   1  10
TORSDOF 4
ENDMDL
MODEL      347
REMARK  Name = ZINC001208734845
REMARK                            x       y       z     vdW  Elec       q    Type
REMARK                         _______ _______ _______ _____ _____    ______ ____
ROOT
ATOM      1  N   LIG    1       -2.834  -4.051  -0.239  0.00  0.00    -0.380 N 
ATOM      2  C   LIG    1       -2.163  -4.630   0.944  0.00  0.00    +0.250 C 
ATOM      3  C   LIG    1       -2.453  -6.128   1.144  0.00  0.00    +0.060 C 
ATOM      4  C   LIG    1       -2.409  -6.924  -0.133  0.00  0.00    +0.020 C 
ATOM      5  C   LIG    1       -3.834  -6.973  -0.741  0.00  0.00    +0.030 C 
ATOM      6  C   LIG    1       -4.180  -5.702  -1.365  0.00  0.00    +0.050 C 
ATOM      7  C   LIG    1       -4.190  -4.526  -0.374  0.00  0.00    +0.160 C 
ATOM      8  C   LIG    1       -5.081  -3.404  -0.910  0.00  0.00    +0.090 C 
ATOM      9  H   LIG    1       -2.314  -4.301  -1.067  0.00  0.00    +0.420 HD
ENDROOT
BRANCH   1  10
ATOM     10  C   LIG    1       -2.851  -2.587  -0.110  0.00  0.00    +0.250 C 
BRANCH  10  11
ATOM     11  C   LIG    1       -1.416  -2.058  -0.121  0.00  0.00    +0.020 C 
BRANCH  11  12
ATOM     12  C   LIG    1       -1.433  -0.534   0.013  0.00  0.00    +0.030 C 
BRANCH  12  14
ATOM     13  C   LIG    1       -0.019   1.526   0.010  0.00  0.00    +0.030 C 
ATOM     14  C   LIG    1        0.002  -0.004   0.002  0.00  0.00    -0.030 C 
ATOM     15  C   LIG    1        0.742  -0.511   1.242  0.00  0.00    +0.020 C 
ENDBRANCH  12  14
ENDBRANCH  11  12
ENDBRANCH  10  11
ENDBRANCH   1  10
TORSDOF 4
ENDMDL
MODEL      348
REMARK  Name = ZINC001208728020
REMARK                            x       y       z     vdW  Elec       q    Type
REMARK                         _______ _______ _______ _____ _____    ______ ____
ROOT
ATOM      1  N   LIG    1       -2.726  -3.454   1.144  0.00  0.00    -0.390 N 
ATOM      2  H   LIG    1       -2.987  -3.213   0.200  0.00  0.00    +0.420 HD
ENDROOT
BRANCH   1   3
ATOM      3  C   LIG    1       -1.340  -3.035   1.391  0.00  0.00    +0.250 C 
BRANCH   3   4
ATOM      4  C   LIG    1       -0.425  -3.647   0.329  0.00  0.00    +0.070 C 
BRANCH   4   6
ATOM      5  C   LIG    1        1.981  -3.936   0.629  0.00  0.00    +0.000 C 
ATOM      6  C   LIG    1        0.972  -3.110   0.499  0.00  0.00    -0.070 C 
BRANCH   5   8
ATOM      7  C   LIG    1        2.798  -5.935  -0.591  0.00  0.00    +0.030 C 
ATOM      8  C   LIG    1        1.775  -5.415   0.421  0.00  0.00    +0.040 C 
ENDBRANCH   5   8
ENDBRANCH   4   6
ENDBRANCH   3   4
ENDBRANCH   1   3
BRANCH   1   9
ATOM      9  C   LIG    1       -2.839  -4.907   1.327  0.00  0.00    +0.240 C 
BRANCH   9  10
ATOM     10  C   LIG    1       -4.250  -5.361   0.949  0.00  0.00    +0.030 C 
BRANCH  10  11
ATOM     11  C   LIG    1       -4.367  -6.875   1.139  0.00  0.00    +0.020 C 
ATOM     12  C   LIG    1       -5.779  -7.329   0.761  0.00  0.00    +0.030 C 
ENDBRANCH  10  11
ENDBRANCH   9  10
ENDBRANCH   1   9
BRANCH   1  13
ATOM     13  C   LIG    1       -3.620  -2.771   2.089  0.00  0.00    +0.240 C 
BRANCH  13  14
ATOM     14  C   LIG    1       -3.619  -1.269   1.798  0.00  0.00    +0.030 C 
ATOM     15  C   LIG    1       -4.477  -0.547   2.838  0.00  0.00    +0.060 C 
ENDBRANCH  13  14
ENDBRANCH   1  13
TORSDOF 9
ENDMDL
MODEL      349
REMARK  Name = ZINC001208737138
REMARK                            x       y       z     vdW  Elec       q    Type
REMARK                         _______ _______ _______ _____ _____    ______ ____
ROOT
ATOM      1  C   LIG    1        0.718  -0.497  -1.257  0.00  0.00    +0.010 C 
ATOM      2  C   LIG    1       -0.090  -0.099  -2.495  0.00  0.00    +0.040 C 
ATOM      3  C   LIG    1       -1.454  -0.795  -2.448  0.00  0.00    +0.050 C 
ATOM      4  C   LIG    1       -1.245  -2.308  -2.354  0.00  0.00    +0.250 C 
ATOM      5  N   LIG    1       -0.489  -2.627  -1.137  0.00  0.00    -0.380 N 
ATOM      6  H   LIG    1       -0.979  -2.264  -0.333  0.00  0.00    +0.420 HD
ATOM      7  C   LIG    1        0.848  -2.021  -1.207  0.00  0.00    +0.260 C 
ENDROOT
BRANCH   1   9
ATOM      8  C   LIG    1       -0.019   1.526   0.010  0.00  0.00    +0.030 C 
ATOM      9  C   LIG    1        0.002  -0.004   0.002  0.00  0.00    -0.000 C 
ENDBRANCH   1   9
BRANCH   5  10
ATOM     10  C   LIG    1       -0.356  -4.084  -1.012  0.00  0.00    +0.250 C 
BRANCH  10  11
ATOM     11  C   LIG    1       -1.739  -4.706  -0.805  0.00  0.00    +0.030 C 
BRANCH  11  12
ATOM     12  C   LIG    1       -1.601  -6.224  -0.675  0.00  0.00    +0.030 C 
BRANCH  12  13
ATOM     13  C   LIG    1       -2.984  -6.846  -0.468  0.00  0.00    -0.030 C 
ATOM     14  C   LIG    1       -2.835  -8.348  -0.214  0.00  0.00    +0.030 C 
ATOM     15  C   LIG    1       -3.836  -6.623  -1.719  0.00  0.00    +0.020 C 
ENDBRANCH  12  13
ENDBRANCH  11  12
ENDBRANCH  10  11
ENDBRANCH   5  10
TORSDOF 5
ENDMDL
MODEL      350
REMARK  Name = ZINC001208734169
REMARK                            x       y       z     vdW  Elec       q    Type
REMARK                         _______ _______ _______ _____ _____    ______ ____
ROOT
ATOM      1  N   LIG    1       -2.828  -4.062   0.007  0.00  0.00    -0.390 N 
ATOM      2  C   LIG    1       -2.224  -4.550   1.254  0.00  0.00    +0.300 C 
ATOM      3  H   LIG    1       -2.285  -4.387  -0.779  0.00  0.00    +0.420 HD
ENDROOT
BRANCH   1   4
ATOM      4  C   LIG    1       -2.848  -2.593   0.015  0.00  0.00    +0.250 C 
BRANCH   4   5
ATOM      5  C   LIG    1       -1.413  -2.063   0.004  0.00  0.00    +0.030 C 
BRANCH   5   6
ATOM      6  C   LIG    1       -1.433  -0.534   0.013  0.00  0.00    +0.020 C 
BRANCH   6   8
ATOM      7  C   LIG    1       -0.019   1.526   0.010  0.00  0.00    +0.020 C 
ATOM      8  C   LIG    1        0.002  -0.004   0.002  0.00  0.00    +0.010 C 
ENDBRANCH   6   8
ENDBRANCH   5   6
ENDBRANCH   4   5
ENDBRANCH   1   4
BRANCH   1   9
ATOM      9  C   LIG    1       -4.202  -4.570  -0.103  0.00  0.00    +0.250 C 
BRANCH   9  10
ATOM     10  C   LIG    1       -4.173  -6.093  -0.237  0.00  0.00    +0.030 C 
BRANCH  10  11
ATOM     11  C   LIG    1       -5.604  -6.622  -0.352  0.00  0.00    +0.030 C 
BRANCH  11  12
ATOM     12  C   LIG    1       -5.576  -8.146  -0.486  0.00  0.00    -0.030 C 
ATOM     13  C   LIG    1       -4.896  -8.530  -1.801  0.00  0.00    +0.020 C 
ATOM     14  C   LIG    1       -7.008  -8.686  -0.475  0.00  0.00    +0.030 C 
ENDBRANCH  11  12
ENDBRANCH  10  11
ENDBRANCH   9  10
ENDBRANCH   1   9
TORSDOF 8
ENDMDL
MODEL      351
REMARK  Name = ZINC001208734322
REMARK                            x       y       z     vdW  Elec       q    Type
REMARK                         _______ _______ _______ _____ _____    ______ ____
ROOT
ATOM      1  N   LIG    1       -2.889  -2.677   0.127  0.00  0.00    -0.390 N 
ATOM      2  H   LIG    1       -3.575  -2.378   0.804  0.00  0.00    +0.420 HD
ENDROOT
BRANCH   1   3
ATOM      3  C   LIG    1       -3.352  -2.333  -1.224  0.00  0.00    +0.240 C 
ATOM      4  C   LIG    1       -4.755  -2.903  -1.443  0.00  0.00    +0.080 C 
ENDBRANCH   1   3
BRANCH   1   5
ATOM      5  C   LIG    1       -1.612  -2.002   0.394  0.00  0.00    +0.250 C 
BRANCH   5   6
ATOM      6  C   LIG    1       -1.830  -0.487   0.413  0.00  0.00    +0.030 C 
BRANCH   6   8
ATOM      7  C   LIG    1       -0.717   1.730   0.710  0.00  0.00    +0.030 C 
ATOM      8  C   LIG    1       -0.499   0.216   0.691  0.00  0.00    +0.020 C 
ENDBRANCH   6   8
ENDBRANCH   5   6
ENDBRANCH   1   5
BRANCH   1   9
ATOM      9  C   LIG    1       -2.705  -4.131   0.227  0.00  0.00    +0.250 C 
BRANCH   9  10
ATOM     10  C   LIG    1       -2.350  -4.502   1.668  0.00  0.00    +0.030 C 
BRANCH  10  11
ATOM     11  C   LIG    1       -2.270  -6.025   1.797  0.00  0.00    +0.030 C 
BRANCH  11  12
ATOM     12  C   LIG    1       -1.915  -6.396   3.238  0.00  0.00    -0.030 C 
ATOM     13  C   LIG    1       -0.509  -5.888   3.565  0.00  0.00    +0.020 C 
ATOM     14  C   LIG    1       -1.957  -7.917   3.398  0.00  0.00    +0.030 C 
ENDBRANCH  11  12
ENDBRANCH  10  11
ENDBRANCH   9  10
ENDBRANCH   1   9
TORSDOF 8
ENDMDL
MODEL      352
REMARK  Name = ZINC001208736156
REMARK                            x       y       z     vdW  Elec       q    Type
REMARK                         _______ _______ _______ _____ _____    ______ ____
ROOT
ATOM      1  N   LIG    1       -4.245  -0.274  -2.522  0.00  0.00    -0.380 N 
ATOM      2  C   LIG    1       -3.590  -0.938  -3.656  0.00  0.00    +0.250 C 
ATOM      3  C   LIG    1       -4.236  -0.476  -4.964  0.00  0.00    +0.060 C 
ATOM      4  C   LIG    1       -5.724  -0.838  -4.947  0.00  0.00    -0.010 C 
ATOM      5  C   LIG    1       -6.381  -0.202  -3.719  0.00  0.00    +0.060 C 
ATOM      6  C   LIG    1       -5.880  -2.359  -4.882  0.00  0.00    +0.030 C 
ATOM      7  C   LIG    1       -5.655  -0.675  -2.458  0.00  0.00    +0.160 C 
ATOM      8  C   LIG    1       -6.307  -0.042  -1.227  0.00  0.00    +0.080 C 
ATOM      9  H   LIG    1       -4.185   0.726  -2.639  0.00  0.00    +0.420 HD
ENDROOT
BRANCH   1  10
ATOM     10  C   LIG    1       -3.571  -0.661  -1.275  0.00  0.00    +0.240 C 
BRANCH  10  11
ATOM     11  C   LIG    1       -2.135  -0.131  -1.286  0.00  0.00    +0.030 C 
BRANCH  11  12
ATOM     12  C   LIG    1       -1.433  -0.534   0.013  0.00  0.00    +0.030 C 
BRANCH  12  14
ATOM     13  C   LIG    1       -0.019   1.526   0.010  0.00  0.00    +0.020 C 
ATOM     14  C   LIG    1        0.002  -0.004   0.002  0.00  0.00    -0.030 C 
ATOM     15  C   LIG    1        0.742  -0.511   1.242  0.00  0.00    +0.030 C 
ENDBRANCH  12  14
ENDBRANCH  11  12
ENDBRANCH  10  11
ENDBRANCH   1  10
TORSDOF 4
ENDMDL
MODEL      353
REMARK  Name = ZINC001173288197
REMARK                            x       y       z     vdW  Elec       q    Type
REMARK                         _______ _______ _______ _____ _____    ______ ____
ROOT
ATOM      1  N   LIG    1       -2.843  -3.483  -0.552  0.00  0.00    -0.380 N 
ATOM      2  C   LIG    1       -3.644  -3.659  -1.771  0.00  0.00    +0.320 C 
ATOM      3  H   LIG    1       -3.454  -3.288   0.227  0.00  0.00    +0.420 HD
ENDROOT
BRANCH   1   7
ATOM      4  C   LIG    1       -1.402  -0.715   1.034  0.00  0.00    -0.010 C 
ATOM      5  C   LIG    1       -1.874   0.026  -0.242  0.00  0.00    +0.050 C 
ATOM      6  C   LIG    1       -2.696  -1.058  -0.982  0.00  0.00    +0.050 C 
ATOM      7  C   LIG    1       -1.911  -2.362  -0.736  0.00  0.00    +0.160 C 
ATOM      8  C   LIG    1       -1.089  -2.146   0.549  0.00  0.00    +0.040 C 
BRANCH   4  10
ATOM      9  C   LIG    1       -0.496   1.331   2.146  0.00  0.00    +0.020 C 
ATOM     10  C   LIG    1       -0.144  -0.055   1.602  0.00  0.00    +0.020 C 
ENDBRANCH   4  10
ENDBRANCH   1   7
BRANCH   1  11
ATOM     11  C   LIG    1       -2.084  -4.712  -0.284  0.00  0.00    +0.250 C 
BRANCH  11  12
ATOM     12  C   LIG    1       -3.043  -5.815   0.170  0.00  0.00    -0.090 C 
ATOM     13  C   LIG    1       -3.893  -5.304   1.335  0.00  0.00    +0.040 C 
ATOM     14  C   LIG    1       -2.239  -7.035   0.622  0.00  0.00    +0.070 C 
ATOM     15  C   LIG    1       -3.955  -6.208  -0.994  0.00  0.00    +0.050 C 
ENDBRANCH  11  12
ENDBRANCH   1  11
TORSDOF 4
ENDMDL
MODEL      354
REMARK  Name = ZINC001208734204
REMARK                            x       y       z     vdW  Elec       q    Type
REMARK                         _______ _______ _______ _____ _____    ______ ____
ROOT
ATOM      1  N   LIG    1       -2.834  -4.051  -0.239  0.00  0.00    -0.380 N 
ATOM      2  C   LIG    1       -2.224  -4.638   0.931  0.00  0.00    +0.240 C 
ATOM      3  C   LIG    1       -1.383  -5.873   0.562  0.00  0.00    +0.060 C 
ATOM      4  C   LIG    1       -2.066  -6.762  -0.495  0.00  0.00    +0.010 C 
ATOM      5  C   LIG    1       -3.541  -6.947  -0.255  0.00  0.00    +0.040 C 
ATOM      6  C   LIG    1       -4.322  -5.845  -1.012  0.00  0.00    -0.030 C 
ATOM      7  C   LIG    1       -5.797  -6.244  -1.097  0.00  0.00    +0.070 C 
ATOM      8  C   LIG    1       -4.213  -4.560  -0.329  0.00  0.00    +0.260 C 
ATOM      9  H   LIG    1       -2.317  -4.315  -1.064  0.00  0.00    +0.420 HD
ENDROOT
BRANCH   1  10
ATOM     10  C   LIG    1       -2.851  -2.587  -0.110  0.00  0.00    +0.250 C 
BRANCH  10  11
ATOM     11  C   LIG    1       -1.416  -2.058  -0.121  0.00  0.00    +0.030 C 
BRANCH  11  12
ATOM     12  C   LIG    1       -1.433  -0.534   0.013  0.00  0.00    +0.030 C 
BRANCH  12  14
ATOM     13  C   LIG    1       -0.019   1.526   0.010  0.00  0.00    +0.030 C 
ATOM     14  C   LIG    1        0.002  -0.004   0.002  0.00  0.00    -0.030 C 
ATOM     15  C   LIG    1        0.742  -0.511   1.242  0.00  0.00    +0.020 C 
ENDBRANCH  12  14
ENDBRANCH  11  12
ENDBRANCH  10  11
ENDBRANCH   1  10
TORSDOF 4
ENDMDL
MODEL      355
REMARK  Name = ZINC001208736502
REMARK                            x       y       z     vdW  Elec       q    Type
REMARK                         _______ _______ _______ _____ _____    ______ ____
ROOT
ATOM      1  N   LIG    1       -2.759  -3.615   0.119  0.00  0.00    -0.390 N 
ATOM      2  C   LIG    1       -2.134  -4.458   1.160  0.00  0.00    +0.250 C 
ATOM      3  C   LIG    1       -2.646  -5.891   0.868  0.00  0.00    +0.080 C 
ATOM      4  C   LIG    1       -4.104  -5.617   0.414  0.00  0.00    +0.070 C 
ATOM      5  C   LIG    1       -3.984  -4.286  -0.353  0.00  0.00    +0.160 C 
ATOM      6  H   LIG    1       -2.118  -3.497  -0.652  0.00  0.00    +0.420 HD
ENDROOT
BRANCH   5   7
ATOM      7  C   LIG    1       -5.205  -3.410  -0.069  0.00  0.00    -0.020 C 
ATOM      8  C   LIG    1       -6.465  -4.278  -0.060  0.00  0.00    +0.070 C 
ATOM      9  C   LIG    1       -5.330  -2.341  -1.157  0.00  0.00    +0.050 C 
ENDBRANCH   5   7
BRANCH   1  10
ATOM     10  C   LIG    1       -3.101  -2.303   0.685  0.00  0.00    +0.240 C 
BRANCH  10  11
ATOM     11  C   LIG    1       -1.819  -1.566   1.075  0.00  0.00    +0.020 C 
BRANCH  11  12
ATOM     12  C   LIG    1       -2.175  -0.200   1.665  0.00  0.00    +0.030 C 
BRANCH  12  14
ATOM     13  C   LIG    1       -1.240   1.950   2.528  0.00  0.00    +0.030 C 
ATOM     14  C   LIG    1       -0.892   0.537   2.055  0.00  0.00    -0.030 C 
ATOM     15  C   LIG    1       -0.192  -0.221   3.185  0.00  0.00    +0.020 C 
ENDBRANCH  12  14
ENDBRANCH  11  12
ENDBRANCH  10  11
ENDBRANCH   1  10
TORSDOF 5
ENDMDL
MODEL      356
REMARK  Name = ZINC001208736132
REMARK                            x       y       z     vdW  Elec       q    Type
REMARK                         _______ _______ _______ _____ _____    ______ ____
ROOT
ATOM      1  N   LIG    1       -2.834  -4.051  -0.239  0.00  0.00    -0.380 N 
ATOM      2  C   LIG    1       -2.191  -4.637   0.943  0.00  0.00    +0.250 C 
ATOM      3  C   LIG    1       -2.098  -6.155   0.777  0.00  0.00    +0.050 C 
ATOM      4  C   LIG    1       -3.507  -6.734   0.621  0.00  0.00    +0.030 C 
ATOM      5  C   LIG    1       -4.196  -6.061  -0.570  0.00  0.00    -0.020 C 
ATOM      6  C   LIG    1       -5.631  -6.576  -0.688  0.00  0.00    +0.070 C 
ATOM      7  C   LIG    1       -4.211  -4.546  -0.352  0.00  0.00    +0.160 C 
ATOM      8  C   LIG    1       -4.897  -3.868  -1.540  0.00  0.00    +0.080 C 
ATOM      9  H   LIG    1       -2.316  -4.308  -1.065  0.00  0.00    +0.420 HD
ENDROOT
BRANCH   1  10
ATOM     10  C   LIG    1       -2.851  -2.587  -0.110  0.00  0.00    +0.240 C 
BRANCH  10  11
ATOM     11  C   LIG    1       -1.416  -2.058  -0.121  0.00  0.00    +0.030 C 
BRANCH  11  12
ATOM     12  C   LIG    1       -1.433  -0.534   0.013  0.00  0.00    +0.030 C 
BRANCH  12  14
ATOM     13  C   LIG    1       -0.019   1.526   0.010  0.00  0.00    +0.030 C 
ATOM     14  C   LIG    1        0.002  -0.004   0.002  0.00  0.00    -0.030 C 
ATOM     15  C   LIG    1        0.742  -0.511   1.242  0.00  0.00    +0.020 C 
ENDBRANCH  12  14
ENDBRANCH  11  12
ENDBRANCH  10  11
ENDBRANCH   1  10
TORSDOF 4
ENDMDL
MODEL      357
REMARK  Name = ZINC001173292850
REMARK                            x       y       z     vdW  Elec       q    Type
REMARK                         _______ _______ _______ _____ _____    ______ ____
ROOT
ATOM      1  N   LIG    1        2.304  -0.280   1.132  0.00  0.00    -0.380 N 
ATOM      2  C   LIG    1        2.355   1.188   1.107  0.00  0.00    +0.310 C 
ATOM      3  H   LIG    1        2.910  -0.650   0.415  0.00  0.00    +0.420 HD
ENDROOT
BRANCH   1   4
ATOM      4  C   LIG    1        2.748  -0.763   2.446  0.00  0.00    +0.150 C 
ATOM      5  C   LIG    1        4.280  -0.598   2.602  0.00  0.00    +0.030 C 
ATOM      6  C   LIG    1        4.667  -1.645   3.668  0.00  0.00    +0.050 C 
ATOM      7  C   LIG    1        3.570  -2.724   3.642  0.00  0.00    +0.000 C 
ATOM      8  C   LIG    1        2.551  -2.295   2.563  0.00  0.00    +0.040 C 
BRANCH   7   9
ATOM      9  C   LIG    1        4.179  -4.081   3.282  0.00  0.00    +0.010 C 
ATOM     10  C   LIG    1        5.113  -4.534   4.406  0.00  0.00    +0.020 C 
ENDBRANCH   7   9
ENDBRANCH   1   4
BRANCH   1  11
ATOM     11  C   LIG    1        0.926  -0.726   0.886  0.00  0.00    +0.160 C 
BRANCH  11  13
ATOM     12  C   LIG    1        0.139  -0.099   3.173  0.00  0.00    +0.030 C 
ATOM     13  C   LIG    1       -0.044   0.155   1.676  0.00  0.00    +0.050 C 
ENDBRANCH  11  13
BRANCH  11  14
ATOM     14  C   LIG    1        0.613  -0.618  -0.607  0.00  0.00    +0.050 C 
ATOM     15  C   LIG    1        1.558  -1.530  -1.393  0.00  0.00    +0.040 C 
ENDBRANCH  11  14
ENDBRANCH   1  11
TORSDOF 5
ENDMDL
MODEL      358
REMARK  Name = ZINC001208729551
REMARK                            x       y       z     vdW  Elec       q    Type
REMARK                         _______ _______ _______ _____ _____    ______ ____
ROOT
ATOM      1  N   LIG    1        3.245  -3.695   1.837  0.00  0.00    -0.380 N 
ATOM      2  H   LIG    1        4.142  -3.271   2.020  0.00  0.00    +0.420 HD
ENDROOT
BRANCH   1   3
ATOM      3  C   LIG    1        2.332  -3.409   2.951  0.00  0.00    +0.240 C 
ATOM      4  C   LIG    1        2.979  -3.848   4.267  0.00  0.00    +0.080 C 
ENDBRANCH   1   3
BRANCH   1   5
ATOM      5  C   LIG    1        2.688  -3.145   0.594  0.00  0.00    +0.260 C 
BRANCH   5   6
ATOM      6  C   LIG    1        2.697  -1.617   0.663  0.00  0.00    +0.070 C 
BRANCH   6   8
ATOM      7  C   LIG    1        1.141  -0.190  -0.563  0.00  0.00    +0.000 C 
ATOM      8  C   LIG    1        2.126  -1.052  -0.612  0.00  0.00    -0.070 C 
BRANCH   7  10
ATOM      9  C   LIG    1        0.689   1.903   0.688  0.00  0.00    +0.030 C 
ATOM     10  C   LIG    1        0.699   0.375   0.762  0.00  0.00    +0.040 C 
ENDBRANCH   7  10
ENDBRANCH   6   8
ENDBRANCH   5   6
ENDBRANCH   1   5
BRANCH   1  11
ATOM     11  C   LIG    1        3.409  -5.148   1.699  0.00  0.00    +0.160 C 
BRANCH  11  12
ATOM     12  C   LIG    1        4.740  -5.448   1.006  0.00  0.00    +0.050 C 
ATOM     13  C   LIG    1        5.894  -4.987   1.898  0.00  0.00    +0.030 C 
ENDBRANCH  11  12
BRANCH  11  14
ATOM     14  C   LIG    1        2.260  -5.714   0.863  0.00  0.00    +0.050 C 
ATOM     15  C   LIG    1        0.948  -5.574   1.637  0.00  0.00    +0.030 C 
ENDBRANCH  11  14
ENDBRANCH   1  11
TORSDOF 8
ENDMDL
MODEL      359
REMARK  Name = ZINC001208735397
REMARK                            x       y       z     vdW  Elec       q    Type
REMARK                         _______ _______ _______ _____ _____    ______ ____
ROOT
ATOM      1  N   LIG    1       -4.245  -0.274  -2.522  0.00  0.00    -0.380 N 
ATOM      2  C   LIG    1       -3.622  -0.942  -3.642  0.00  0.00    +0.240 C 
ATOM      3  C   LIG    1       -3.580  -0.031  -4.881  0.00  0.00    +0.060 C 
ATOM      4  C   LIG    1       -4.880   0.773  -5.072  0.00  0.00    +0.010 C 
ATOM      5  C   LIG    1       -6.125  -0.038  -4.824  0.00  0.00    -0.020 C 
ATOM      6  C   LIG    1       -6.532   0.096  -3.337  0.00  0.00    +0.060 C 
ATOM      7  C   LIG    1       -7.258   0.477  -5.714  0.00  0.00    +0.040 C 
ATOM      8  C   LIG    1       -5.656  -0.694  -2.478  0.00  0.00    +0.260 C 
ATOM      9  H   LIG    1       -4.189   0.726  -2.645  0.00  0.00    +0.420 HD
ENDROOT
BRANCH   1  10
ATOM     10  C   LIG    1       -3.571  -0.661  -1.275  0.00  0.00    +0.250 C 
BRANCH  10  11
ATOM     11  C   LIG    1       -2.135  -0.131  -1.286  0.00  0.00    +0.030 C 
BRANCH  11  12
ATOM     12  C   LIG    1       -1.433  -0.534   0.013  0.00  0.00    +0.030 C 
BRANCH  12  14
ATOM     13  C   LIG    1       -0.019   1.526   0.010  0.00  0.00    +0.020 C 
ATOM     14  C   LIG    1        0.002  -0.004   0.002  0.00  0.00    -0.030 C 
ATOM     15  C   LIG    1        0.742  -0.511   1.242  0.00  0.00    +0.030 C 
ENDBRANCH  12  14
ENDBRANCH  11  12
ENDBRANCH  10  11
ENDBRANCH   1  10
TORSDOF 4
ENDMDL
MODEL      360
REMARK  Name = ZINC001208730457
REMARK                            x       y       z     vdW  Elec       q    Type
REMARK                         _______ _______ _______ _____ _____    ______ ____
ROOT
ATOM      1  N   LIG    1       -2.897  -3.715   1.791  0.00  0.00    -0.380 N 
ATOM      2  C   LIG    1       -3.235  -3.375   0.404  0.00  0.00    +0.250 C 
ATOM      3  C   LIG    1       -4.607  -3.954   0.053  0.00  0.00    +0.050 C 
ATOM      4  C   LIG    1       -4.568  -5.477   0.212  0.00  0.00    +0.030 C 
ATOM      5  C   LIG    1       -4.142  -5.820   1.642  0.00  0.00    +0.060 C 
ATOM      6  C   LIG    1       -2.787  -5.172   1.933  0.00  0.00    +0.170 C 
ATOM      7  H   LIG    1       -3.620  -3.372   2.406  0.00  0.00    +0.420 HD
ENDROOT
BRANCH   6   8
ATOM      8  C   LIG    1       -2.356  -5.511   3.361  0.00  0.00    +0.030 C 
ATOM      9  C   LIG    1       -2.189  -7.025   3.498  0.00  0.00    +0.060 C 
ENDBRANCH   6   8
BRANCH   1  10
ATOM     10  C   LIG    1       -1.616  -3.091   2.148  0.00  0.00    +0.250 C 
BRANCH  10  11
ATOM     11  C   LIG    1       -1.771  -1.569   2.143  0.00  0.00    +0.070 C 
BRANCH  11  13
ATOM     12  C   LIG    1        0.066  -0.013   1.731  0.00  0.00    +0.000 C 
ATOM     13  C   LIG    1       -0.456  -0.929   2.509  0.00  0.00    -0.070 C 
BRANCH  12  15
ATOM     14  C   LIG    1       -0.767   2.032   0.604  0.00  0.00    +0.030 C 
ATOM     15  C   LIG    1       -0.713   0.504   0.549  0.00  0.00    +0.040 C 
ENDBRANCH  12  15
ENDBRANCH  11  13
ENDBRANCH  10  11
ENDBRANCH   1  10
TORSDOF 5
ENDMDL
MODEL      361
REMARK  Name = ZINC001173292849
REMARK                            x       y       z     vdW  Elec       q    Type
REMARK                         _______ _______ _______ _____ _____    ______ ____
ROOT
ATOM      1  N   LIG    1        2.322  -0.394   1.165  0.00  0.00    -0.380 N 
ATOM      2  C   LIG    1        2.587   1.049   1.089  0.00  0.00    +0.310 C 
ATOM      3  H   LIG    1        2.873  -0.875   0.470  0.00  0.00    +0.420 HD
ENDROOT
BRANCH   1   4
ATOM      4  C   LIG    1        2.681  -0.888   2.501  0.00  0.00    +0.150 C 
ATOM      5  C   LIG    1        4.202  -0.760   2.721  0.00  0.00    +0.040 C 
ATOM      6  C   LIG    1        4.577  -2.025   3.533  0.00  0.00    +0.050 C 
ATOM      7  C   LIG    1        3.673  -3.115   2.904  0.00  0.00    -0.010 C 
ATOM      8  C   LIG    1        2.343  -2.385   2.618  0.00  0.00    +0.040 C 
BRANCH   7   9
ATOM      9  C   LIG    1        3.455  -4.264   3.890  0.00  0.00    +0.020 C 
ATOM     10  C   LIG    1        4.781  -4.988   4.130  0.00  0.00    +0.020 C 
ENDBRANCH   7   9
ENDBRANCH   1   4
BRANCH   1  11
ATOM     11  C   LIG    1        0.895  -0.644   0.918  0.00  0.00    +0.160 C 
BRANCH  11  13
ATOM     12  C   LIG    1        0.159   0.147   3.171  0.00  0.00    +0.030 C 
ATOM     13  C   LIG    1        0.059   0.397   1.665  0.00  0.00    +0.050 C 
ENDBRANCH  11  13
BRANCH  11  14
ATOM     14  C   LIG    1        0.613  -0.544  -0.583  0.00  0.00    +0.050 C 
ATOM     15  C   LIG    1        1.470  -1.566  -1.332  0.00  0.00    +0.040 C 
ENDBRANCH  11  14
ENDBRANCH   1  11
TORSDOF 5
ENDMDL
MODEL      362
REMARK  Name = ZINC001208734844
REMARK                            x       y       z     vdW  Elec       q    Type
REMARK                         _______ _______ _______ _____ _____    ______ ____
ROOT
ATOM      1  N   LIG    1       -2.838  -4.035  -0.359  0.00  0.00    -0.380 N 
ATOM      2  C   LIG    1       -2.254  -4.702   0.780  0.00  0.00    +0.240 C 
ATOM      3  C   LIG    1       -1.419  -5.882   0.258  0.00  0.00    +0.050 C 
ATOM      4  C   LIG    1       -2.212  -7.079   0.007  0.00  0.00    +0.030 C 
ATOM      5  C   LIG    1       -3.288  -6.816  -1.076  0.00  0.00    +0.020 C 
ATOM      6  C   LIG    1       -4.405  -6.012  -0.466  0.00  0.00    +0.060 C 
ATOM      7  C   LIG    1       -4.221  -4.492  -0.615  0.00  0.00    +0.160 C 
ATOM      8  C   LIG    1       -5.159  -3.787   0.368  0.00  0.00    +0.070 C 
ATOM      9  H   LIG    1       -2.274  -4.223  -1.174  0.00  0.00    +0.420 HD
ENDROOT
BRANCH   1  10
ATOM     10  C   LIG    1       -2.851  -2.587  -0.110  0.00  0.00    +0.240 C 
BRANCH  10  11
ATOM     11  C   LIG    1       -1.413  -2.073  -0.018  0.00  0.00    +0.020 C 
BRANCH  11  12
ATOM     12  C   LIG    1       -1.424  -0.548   0.105  0.00  0.00    +0.030 C 
BRANCH  12  14
ATOM     13  C   LIG    1        0.010   1.496   0.195  0.00  0.00    +0.030 C 
ATOM     14  C   LIG    1        0.014  -0.034   0.197  0.00  0.00    -0.030 C 
ATOM     15  C   LIG    1        0.655  -0.539   1.491  0.00  0.00    +0.020 C 
ENDBRANCH  12  14
ENDBRANCH  11  12
ENDBRANCH  10  11
ENDBRANCH   1  10
TORSDOF 4
ENDMDL
MODEL      363
REMARK  Name = ZINC001173292847
REMARK                            x       y       z     vdW  Elec       q    Type
REMARK                         _______ _______ _______ _____ _____    ______ ____
ROOT
ATOM      1  N   LIG    1        2.408  -0.482   1.164  0.00  0.00    -0.380 N 
ATOM      2  C   LIG    1        2.630   0.969   1.199  0.00  0.00    +0.300 C 
ATOM      3  H   LIG    1        2.933  -0.885   0.403  0.00  0.00    +0.420 HD
ENDROOT
BRANCH   1   4
ATOM      4  C   LIG    1        2.852  -1.076   2.433  0.00  0.00    +0.150 C 
ATOM      5  C   LIG    1        2.592  -2.603   2.437  0.00  0.00    +0.040 C 
ATOM      6  C   LIG    1        3.613  -3.120   3.481  0.00  0.00    +0.050 C 
ATOM      7  C   LIG    1        4.866  -2.251   3.247  0.00  0.00    +0.000 C 
ATOM      8  C   LIG    1        4.382  -0.948   2.582  0.00  0.00    +0.040 C 
BRANCH   7   9
ATOM      9  C   LIG    1        5.542  -1.936   4.583  0.00  0.00    +0.020 C 
ATOM     10  C   LIG    1        6.098  -3.226   5.190  0.00  0.00    +0.020 C 
ENDBRANCH   7   9
ENDBRANCH   1   4
BRANCH   1  11
ATOM     11  C   LIG    1        0.977  -0.754   0.971  0.00  0.00    +0.160 C 
BRANCH  11  13
ATOM     12  C   LIG    1        0.370  -0.111   3.307  0.00  0.00    +0.030 C 
ATOM     13  C   LIG    1        0.154   0.210   1.827  0.00  0.00    +0.050 C 
ENDBRANCH  11  13
BRANCH  11  14
ATOM     14  C   LIG    1        0.617  -0.562  -0.504  0.00  0.00    +0.050 C 
ATOM     15  C   LIG    1        1.464  -1.502  -1.363  0.00  0.00    +0.040 C 
ENDBRANCH  11  14
ENDBRANCH   1  11
TORSDOF 5
ENDMDL
MODEL      364
REMARK  Name = ZINC001173288194
REMARK                            x       y       z     vdW  Elec       q    Type
REMARK                         _______ _______ _______ _____ _____    ______ ____
ROOT
ATOM      1  N   LIG    1       -3.417  -3.224  -0.667  0.00  0.00    -0.380 N 
ATOM      2  C   LIG    1       -3.204  -3.705   0.704  0.00  0.00    +0.320 C 
ATOM      3  H   LIG    1       -2.846  -3.759  -1.304  0.00  0.00    +0.420 HD
ENDROOT
BRANCH   1   7
ATOM      4  C   LIG    1       -1.220  -0.274  -1.168  0.00  0.00    +0.000 C 
ATOM      5  C   LIG    1       -2.066  -0.311  -2.458  0.00  0.00    +0.040 C 
ATOM      6  C   LIG    1       -3.228  -1.284  -2.193  0.00  0.00    +0.040 C 
ATOM      7  C   LIG    1       -3.047  -1.805  -0.752  0.00  0.00    +0.150 C 
ATOM      8  C   LIG    1       -1.535  -1.617  -0.464  0.00  0.00    +0.050 C 
BRANCH   4  10
ATOM      9  C   LIG    1        0.569   1.182  -2.130  0.00  0.00    +0.020 C 
ATOM     10  C   LIG    1        0.269  -0.184  -1.508  0.00  0.00    +0.020 C 
ENDBRANCH   4  10
ENDBRANCH   1   7
BRANCH   1  11
ATOM     11  C   LIG    1       -4.832  -3.383  -1.027  0.00  0.00    +0.250 C 
BRANCH  11  12
ATOM     12  C   LIG    1       -5.150  -4.869  -1.202  0.00  0.00    -0.090 C 
ATOM     13  C   LIG    1       -4.152  -5.492  -2.181  0.00  0.00    +0.040 C 
ATOM     14  C   LIG    1       -6.569  -5.026  -1.752  0.00  0.00    +0.070 C 
ATOM     15  C   LIG    1       -5.046  -5.576   0.150  0.00  0.00    +0.050 C 
ENDBRANCH  11  12
ENDBRANCH   1  11
TORSDOF 4
ENDMDL
MODEL      365
REMARK  Name = ZINC001173288193
REMARK                            x       y       z     vdW  Elec       q    Type
REMARK                         _______ _______ _______ _____ _____    ______ ____
ROOT
ATOM      1  N   LIG    1       -2.915  -3.462   0.500  0.00  0.00    -0.380 N 
ATOM      2  C   LIG    1       -4.345  -3.377   0.825  0.00  0.00    +0.310 C 
ATOM      3  H   LIG    1       -2.399  -3.744   1.320  0.00  0.00    +0.420 HD
ENDROOT
BRANCH   1   7
ATOM      4  C   LIG    1       -0.380  -0.846   0.212  0.00  0.00    +0.000 C 
ATOM      5  C   LIG    1       -1.196  -0.582   1.502  0.00  0.00    +0.040 C 
ATOM      6  C   LIG    1       -2.607  -1.111   1.171  0.00  0.00    +0.050 C 
ATOM      7  C   LIG    1       -2.436  -2.149   0.048  0.00  0.00    +0.160 C 
ATOM      8  C   LIG    1       -0.926  -2.213  -0.270  0.00  0.00    +0.050 C 
BRANCH   4  10
ATOM      9  C   LIG    1        1.635   0.441   0.938  0.00  0.00    +0.020 C 
ATOM     10  C   LIG    1        1.114  -0.938   0.525  0.00  0.00    +0.020 C 
ENDBRANCH   4  10
ENDBRANCH   1   7
BRANCH   1  11
ATOM     11  C   LIG    1       -2.713  -4.450  -0.569  0.00  0.00    +0.260 C 
BRANCH  11  12
ATOM     12  C   LIG    1       -2.962  -5.856  -0.017  0.00  0.00    -0.090 C 
ATOM     13  C   LIG    1       -2.114  -6.068   1.239  0.00  0.00    +0.040 C 
ATOM     14  C   LIG    1       -2.578  -6.894  -1.073  0.00  0.00    +0.070 C 
ATOM     15  C   LIG    1       -4.443  -6.011   0.335  0.00  0.00    +0.050 C 
ENDBRANCH  11  12
ENDBRANCH   1  11
TORSDOF 4
ENDMDL
MODEL      366
REMARK  Name = ZINC001208736130
REMARK                            x       y       z     vdW  Elec       q    Type
REMARK                         _______ _______ _______ _____ _____    ______ ____
ROOT
ATOM      1  N   LIG    1       -2.834  -4.051  -0.239  0.00  0.00    -0.380 N 
ATOM      2  C   LIG    1       -2.191  -4.637   0.943  0.00  0.00    +0.240 C 
ATOM      3  C   LIG    1       -2.098  -6.155   0.777  0.00  0.00    +0.060 C 
ATOM      4  C   LIG    1       -3.507  -6.734   0.621  0.00  0.00    +0.030 C 
ATOM      5  C   LIG    1       -4.196  -6.061  -0.570  0.00  0.00    -0.020 C 
ATOM      6  C   LIG    1       -5.631  -6.576  -0.688  0.00  0.00    +0.070 C 
ATOM      7  C   LIG    1       -4.211  -4.546  -0.352  0.00  0.00    +0.170 C 
ATOM      8  C   LIG    1       -4.978  -4.224   0.932  0.00  0.00    +0.080 C 
ATOM      9  H   LIG    1       -2.316  -4.308  -1.065  0.00  0.00    +0.420 HD
ENDROOT
BRANCH   1  10
ATOM     10  C   LIG    1       -2.851  -2.587  -0.110  0.00  0.00    +0.250 C 
BRANCH  10  11
ATOM     11  C   LIG    1       -1.416  -2.058  -0.121  0.00  0.00    +0.030 C 
BRANCH  11  12
ATOM     12  C   LIG    1       -1.433  -0.534   0.013  0.00  0.00    +0.030 C 
BRANCH  12  14
ATOM     13  C   LIG    1       -0.019   1.526   0.010  0.00  0.00    +0.030 C 
ATOM     14  C   LIG    1        0.002  -0.004   0.002  0.00  0.00    -0.030 C 
ATOM     15  C   LIG    1        0.742  -0.511   1.242  0.00  0.00    +0.020 C 
ENDBRANCH  12  14
ENDBRANCH  11  12
ENDBRANCH  10  11
ENDBRANCH   1  10
TORSDOF 4
ENDMDL
MODEL      367
REMARK  Name = ZINC001208733483
REMARK                            x       y       z     vdW  Elec       q    Type
REMARK                         _______ _______ _______ _____ _____    ______ ____
ROOT
ATOM      1  N   LIG    1        0.963  -1.933  -1.032  0.00  0.00    -0.380 N 
ATOM      2  H   LIG    1        1.401  -2.185  -0.159  0.00  0.00    +0.420 HD
ENDROOT
BRANCH   1   3
ATOM      3  C   LIG    1        1.912  -2.137  -2.134  0.00  0.00    +0.160 C 
ATOM      4  C   LIG    1        1.303  -1.612  -3.436  0.00  0.00    +0.080 C 
BRANCH   3   5
ATOM      5  C   LIG    1        3.209  -1.383  -1.837  0.00  0.00    +0.050 C 
ATOM      6  C   LIG    1        3.868  -1.973  -0.589  0.00  0.00    +0.030 C 
ENDBRANCH   3   5
ENDBRANCH   1   3
BRANCH   1   7
ATOM      7  C   LIG    1        0.561  -0.520  -0.987  0.00  0.00    +0.240 C 
BRANCH   7   9
ATOM      8  C   LIG    1       -0.606   1.220   0.373  0.00  0.00    +0.060 C 
ATOM      9  C   LIG    1       -0.302  -0.274   0.252  0.00  0.00    +0.020 C 
ENDBRANCH   7   9
ENDBRANCH   1   7
BRANCH   1  10
ATOM     10  C   LIG    1       -0.224  -2.772  -1.245  0.00  0.00    +0.240 C 
BRANCH  10  11
ATOM     11  C   LIG    1        0.171  -4.247  -1.149  0.00  0.00    +0.030 C 
BRANCH  11  12
ATOM     12  C   LIG    1       -1.044  -5.122  -1.460  0.00  0.00    +0.030 C 
BRANCH  12  13
ATOM     13  C   LIG    1       -0.649  -6.597  -1.364  0.00  0.00    -0.030 C 
ATOM     14  C   LIG    1        0.373  -6.923  -2.455  0.00  0.00    +0.020 C 
ATOM     15  C   LIG    1       -1.891  -7.471  -1.552  0.00  0.00    +0.030 C 
ENDBRANCH  12  13
ENDBRANCH  11  12
ENDBRANCH  10  11
ENDBRANCH   1  10
TORSDOF 8
ENDMDL
MODEL      368
REMARK  Name = ZINC001208737233
REMARK                            x       y       z     vdW  Elec       q    Type
REMARK                         _______ _______ _______ _____ _____    ______ ____
ROOT
ATOM      1  N   LIG    1       -2.717  -4.141  -0.321  0.00  0.00    -0.390 N 
ATOM      2  C   LIG    1       -2.018  -4.631   0.875  0.00  0.00    +0.310 C 
ATOM      3  H   LIG    1       -2.274  -4.514  -1.147  0.00  0.00    +0.420 HD
ENDROOT
BRANCH   1   4
ATOM      4  C   LIG    1       -2.658  -2.673  -0.354  0.00  0.00    +0.240 C 
BRANCH   4   5
ATOM      5  C   LIG    1       -1.205  -2.225  -0.522  0.00  0.00    +0.030 C 
BRANCH   5   6
ATOM      6  C   LIG    1       -1.144  -0.696  -0.557  0.00  0.00    +0.030 C 
BRANCH   6   8
ATOM      7  C   LIG    1        0.358   1.273  -0.885  0.00  0.00    +0.030 C 
ATOM      8  C   LIG    1        0.309  -0.248  -0.725  0.00  0.00    -0.030 C 
ATOM      9  C   LIG    1        1.115  -0.657   0.509  0.00  0.00    +0.020 C 
ENDBRANCH   6   8
ENDBRANCH   5   6
ENDBRANCH   4   5
ENDBRANCH   1   4
BRANCH   1  10
ATOM     10  C   LIG    1       -4.120  -4.574  -0.280  0.00  0.00    +0.260 C 
BRANCH  10  11
ATOM     11  C   LIG    1       -4.807  -4.201  -1.595  0.00  0.00    -0.020 C 
ATOM     12  C   LIG    1       -4.262  -5.069  -2.757  0.00  0.00    +0.010 C 
ATOM     13  C   LIG    1       -5.414  -5.019  -3.791  0.00  0.00    +0.030 C 
ATOM     14  C   LIG    1       -6.695  -5.068  -2.933  0.00  0.00    +0.010 C 
ATOM     15  C   LIG    1       -6.309  -4.548  -1.537  0.00  0.00    +0.040 C 
ENDBRANCH  10  11
ENDBRANCH   1  10
TORSDOF 6
ENDMDL
MODEL      369
REMARK  Name = ZINC001208728624
REMARK                            x       y       z     vdW  Elec       q    Type
REMARK                         _______ _______ _______ _____ _____    ______ ____
ROOT
ATOM      1  N   LIG    1       -2.733  -3.721   1.737  0.00  0.00    -0.380 N 
ATOM      2  C   LIG    1       -3.048  -3.474   0.314  0.00  0.00    +0.250 C 
ATOM      3  C   LIG    1       -4.253  -4.283  -0.200  0.00  0.00    +0.060 C 
ATOM      4  C   LIG    1       -5.407  -4.321   0.766  0.00  0.00    +0.020 C 
ATOM      5  C   LIG    1       -5.258  -5.568   1.673  0.00  0.00    +0.030 C 
ATOM      6  C   LIG    1       -4.224  -5.362   2.680  0.00  0.00    +0.050 C 
ATOM      7  C   LIG    1       -2.832  -5.121   2.073  0.00  0.00    +0.160 C 
ATOM      8  C   LIG    1       -1.752  -5.485   3.094  0.00  0.00    +0.090 C 
ATOM      9  H   LIG    1       -3.378  -3.199   2.311  0.00  0.00    +0.420 HD
ENDROOT
BRANCH   1  10
ATOM     10  C   LIG    1       -1.366  -3.259   2.011  0.00  0.00    +0.250 C 
BRANCH  10  11
ATOM     11  C   LIG    1       -1.289  -1.744   1.805  0.00  0.00    +0.070 C 
BRANCH  11  13
ATOM     12  C   LIG    1        0.757  -0.563   1.192  0.00  0.00    +0.000 C 
ATOM     13  C   LIG    1        0.113  -1.270   2.087  0.00  0.00    -0.070 C 
BRANCH  12  15
ATOM     14  C   LIG    1        0.248   1.428  -0.196  0.00  0.00    +0.030 C 
ATOM     15  C   LIG    1        0.043  -0.081  -0.044  0.00  0.00    +0.040 C 
ENDBRANCH  12  15
ENDBRANCH  11  13
ENDBRANCH  10  11
ENDBRANCH   1  10
TORSDOF 4
ENDMDL
MODEL      370
REMARK  Name = ZINC001208735396
REMARK                            x       y       z     vdW  Elec       q    Type
REMARK                         _______ _______ _______ _____ _____    ______ ____
ROOT
ATOM      1  N   LIG    1       -4.324  -0.362  -2.500  0.00  0.00    -0.380 N 
ATOM      2  C   LIG    1       -3.738  -1.088  -3.600  0.00  0.00    +0.240 C 
ATOM      3  C   LIG    1       -3.809  -0.193  -4.848  0.00  0.00    +0.050 C 
ATOM      4  C   LIG    1       -5.095  -0.263  -5.531  0.00  0.00    +0.030 C 
ATOM      5  C   LIG    1       -6.242   0.214  -4.606  0.00  0.00    -0.030 C 
ATOM      6  C   LIG    1       -6.539  -0.868  -3.602  0.00  0.00    +0.060 C 
ATOM      7  C   LIG    1       -7.492   0.496  -5.443  0.00  0.00    +0.040 C 
ATOM      8  C   LIG    1       -5.742  -0.727  -2.293  0.00  0.00    +0.250 C 
ATOM      9  H   LIG    1       -4.264   0.627  -2.690  0.00  0.00    +0.420 HD
ENDROOT
BRANCH   1  10
ATOM     10  C   LIG    1       -3.571  -0.661  -1.275  0.00  0.00    +0.250 C 
BRANCH  10  11
ATOM     11  C   LIG    1       -4.053   0.251  -0.145  0.00  0.00    +0.020 C 
BRANCH  11  12
ATOM     12  C   LIG    1       -3.181   0.032   1.094  0.00  0.00    +0.030 C 
BRANCH  12  14
ATOM     13  C   LIG    1       -5.075   0.531   2.645  0.00  0.00    +0.020 C 
ATOM     14  C   LIG    1       -3.664   0.944   2.224  0.00  0.00    -0.030 C 
ATOM     15  C   LIG    1       -2.717   0.818   3.420  0.00  0.00    +0.030 C 
ENDBRANCH  12  14
ENDBRANCH  11  12
ENDBRANCH  10  11
ENDBRANCH   1  10
TORSDOF 4
ENDMDL
MODEL      371
REMARK  Name = ZINC000308192360
REMARK                            x       y       z     vdW  Elec       q    Type
REMARK                         _______ _______ _______ _____ _____    ______ ____
ROOT
ATOM      1  N   LIG    1        0.762  -1.980   1.234  0.00  0.00    -0.380 N 
ATOM      2  C   LIG    1        1.450  -2.454   0.025  0.00  0.00    +0.320 C 
ATOM      3  H   LIG    1       -0.185  -2.329   1.241  0.00  0.00    +0.420 HD
ENDROOT
BRANCH   1   4
ATOM      4  C   LIG    1        0.742  -0.511   1.242  0.00  0.00    +0.050 C 
ATOM      5  C   LIG    1        0.026  -0.018   2.500  0.00  0.00    +0.090 C 
ATOM      6  C   LIG    1        2.178   0.019   1.231  0.00  0.00    +0.090 C 
BRANCH   4   8
ATOM      7  C   LIG    1       -0.019   1.526   0.010  0.00  0.00    +0.060 C 
ATOM      8  C   LIG    1        0.002  -0.004   0.002  0.00  0.00    +0.040 C 
ENDBRANCH   4   8
ENDBRANCH   1   4
BRANCH   1   9
ATOM      9  C   LIG    1        1.472  -2.466   2.424  0.00  0.00    +0.230 C 
BRANCH   9  10
ATOM     10  C   LIG    1        1.386  -3.993   2.481  0.00  0.00    +0.040 C 
BRANCH  10  11
ATOM     11  C   LIG    1        2.126  -4.500   3.720  0.00  0.00    -0.060 C 
ATOM     12  C   LIG    1        3.594  -4.075   3.647  0.00  0.00    +0.030 C 
ATOM     13  C   LIG    1        2.039  -6.026   3.777  0.00  0.00    +0.040 C 
ATOM     14  C   LIG    1        1.484  -3.905   4.976  0.00  0.00    +0.030 C 
ENDBRANCH  10  11
ENDBRANCH   9  10
ENDBRANCH   1   9
TORSDOF 5
ENDMDL
MODEL      372
REMARK  Name = ZINC001208730456
REMARK                            x       y       z     vdW  Elec       q    Type
REMARK                         _______ _______ _______ _____ _____    ______ ____
ROOT
ATOM      1  N   LIG    1       -2.616  -3.720   1.840  0.00  0.00    -0.380 N 
ATOM      2  C   LIG    1       -2.898  -3.286   0.466  0.00  0.00    +0.240 C 
ATOM      3  C   LIG    1       -4.362  -3.575   0.126  0.00  0.00    +0.060 C 
ATOM      4  C   LIG    1       -4.622  -5.079   0.252  0.00  0.00    +0.030 C 
ATOM      5  C   LIG    1       -4.255  -5.534   1.667  0.00  0.00    +0.060 C 
ATOM      6  C   LIG    1       -2.794  -5.172   1.949  0.00  0.00    +0.170 C 
ATOM      7  H   LIG    1       -3.249  -3.256   2.474  0.00  0.00    +0.420 HD
ENDROOT
BRANCH   6   8
ATOM      8  C   LIG    1       -1.891  -5.875   0.933  0.00  0.00    +0.020 C 
ATOM      9  C   LIG    1       -1.964  -7.389   1.147  0.00  0.00    +0.060 C 
ENDBRANCH   6   8
BRANCH   1  10
ATOM     10  C   LIG    1       -1.233  -3.370   2.188  0.00  0.00    +0.250 C 
BRANCH  10  11
ATOM     11  C   LIG    1       -1.091  -1.847   2.246  0.00  0.00    +0.070 C 
BRANCH  11  13
ATOM     12  C   LIG    1        1.004  -0.657   1.849  0.00  0.00    +0.000 C 
ATOM     13  C   LIG    1        0.329  -1.488   2.603  0.00  0.00    -0.070 C 
BRANCH  12  15
ATOM     14  C   LIG    1        0.567   1.566   0.840  0.00  0.00    +0.030 C 
ATOM     15  C   LIG    1        0.316   0.061   0.717  0.00  0.00    +0.040 C 
ENDBRANCH  12  15
ENDBRANCH  11  13
ENDBRANCH  10  11
ENDBRANCH   1  10
TORSDOF 5
ENDMDL
MODEL      373
REMARK  Name = ZINC001208736134
REMARK                            x       y       z     vdW  Elec       q    Type
REMARK                         _______ _______ _______ _____ _____    ______ ____
ROOT
ATOM      1  N   LIG    1       -2.834  -4.051  -0.239  0.00  0.00    -0.380 N 
ATOM      2  C   LIG    1       -2.191  -4.637   0.943  0.00  0.00    +0.250 C 
ATOM      3  C   LIG    1       -2.098  -6.155   0.777  0.00  0.00    +0.050 C 
ATOM      4  C   LIG    1       -3.507  -6.734   0.621  0.00  0.00    +0.040 C 
ATOM      5  C   LIG    1       -4.196  -6.061  -0.570  0.00  0.00    +0.010 C 
ATOM      6  C   LIG    1       -3.430  -6.387  -1.853  0.00  0.00    +0.040 C 
ATOM      7  C   LIG    1       -4.211  -4.546  -0.352  0.00  0.00    +0.170 C 
ATOM      8  C   LIG    1       -4.897  -3.868  -1.540  0.00  0.00    +0.080 C 
ATOM      9  H   LIG    1       -2.316  -4.308  -1.065  0.00  0.00    +0.420 HD
ENDROOT
BRANCH   1  10
ATOM     10  C   LIG    1       -2.851  -2.587  -0.110  0.00  0.00    +0.240 C 
BRANCH  10  11
ATOM     11  C   LIG    1       -1.416  -2.058  -0.121  0.00  0.00    +0.030 C 
BRANCH  11  12
ATOM     12  C   LIG    1       -1.433  -0.534   0.013  0.00  0.00    +0.030 C 
BRANCH  12  14
ATOM     13  C   LIG    1       -0.019   1.526   0.010  0.00  0.00    +0.030 C 
ATOM     14  C   LIG    1        0.002  -0.004   0.002  0.00  0.00    -0.030 C 
ATOM     15  C   LIG    1        0.742  -0.511   1.242  0.00  0.00    +0.020 C 
ENDBRANCH  12  14
ENDBRANCH  11  12
ENDBRANCH  10  11
ENDBRANCH   1  10
TORSDOF 4
ENDMDL
MODEL      374
REMARK  Name = ZINC001208734205
REMARK                            x       y       z     vdW  Elec       q    Type
REMARK                         _______ _______ _______ _____ _____    ______ ____
ROOT
ATOM      1  N   LIG    1       -2.946  -4.051  -0.194  0.00  0.00    -0.380 N 
ATOM      2  C   LIG    1       -2.398  -4.626   1.010  0.00  0.00    +0.240 C 
ATOM      3  C   LIG    1       -1.656  -5.916   0.622  0.00  0.00    +0.050 C 
ATOM      4  C   LIG    1       -2.537  -7.072   0.511  0.00  0.00    +0.030 C 
ATOM      5  C   LIG    1       -3.605  -6.854  -0.590  0.00  0.00    +0.030 C 
ATOM      6  C   LIG    1       -4.653  -5.907  -0.070  0.00  0.00    -0.020 C 
ATOM      7  C   LIG    1       -6.002  -6.283  -0.687  0.00  0.00    +0.070 C 
ATOM      8  C   LIG    1       -4.362  -4.431  -0.391  0.00  0.00    +0.250 C 
ATOM      9  H   LIG    1       -2.408  -4.370  -0.985  0.00  0.00    +0.420 HD
ENDROOT
BRANCH   1  10
ATOM     10  C   LIG    1       -2.851  -2.587  -0.110  0.00  0.00    +0.250 C 
BRANCH  10  11
ATOM     11  C   LIG    1       -3.243  -1.973  -1.456  0.00  0.00    +0.030 C 
BRANCH  11  12
ATOM     12  C   LIG    1       -3.019  -0.460  -1.411  0.00  0.00    +0.030 C 
BRANCH  12  14
ATOM     13  C   LIG    1       -3.306   1.678  -2.671  0.00  0.00    +0.030 C 
ATOM     14  C   LIG    1       -3.411   0.154  -2.756  0.00  0.00    -0.030 C 
ATOM     15  C   LIG    1       -2.469  -0.362  -3.846  0.00  0.00    +0.020 C 
ENDBRANCH  12  14
ENDBRANCH  11  12
ENDBRANCH  10  11
ENDBRANCH   1  10
TORSDOF 4
ENDMDL
MODEL      375
REMARK  Name = ZINC001208736133
REMARK                            x       y       z     vdW  Elec       q    Type
REMARK                         _______ _______ _______ _____ _____    ______ ____
ROOT
ATOM      1  N   LIG    1       -2.834  -4.051  -0.239  0.00  0.00    -0.380 N 
ATOM      2  C   LIG    1       -2.191  -4.637   0.943  0.00  0.00    +0.240 C 
ATOM      3  C   LIG    1       -2.098  -6.155   0.777  0.00  0.00    +0.050 C 
ATOM      4  C   LIG    1       -3.507  -6.734   0.621  0.00  0.00    +0.030 C 
ATOM      5  C   LIG    1       -4.196  -6.061  -0.570  0.00  0.00    +0.010 C 
ATOM      6  C   LIG    1       -3.430  -6.387  -1.853  0.00  0.00    +0.040 C 
ATOM      7  C   LIG    1       -4.211  -4.546  -0.352  0.00  0.00    +0.170 C 
ATOM      8  C   LIG    1       -4.978  -4.224   0.932  0.00  0.00    +0.070 C 
ATOM      9  H   LIG    1       -2.316  -4.308  -1.065  0.00  0.00    +0.420 HD
ENDROOT
BRANCH   1  10
ATOM     10  C   LIG    1       -2.851  -2.587  -0.110  0.00  0.00    +0.250 C 
BRANCH  10  11
ATOM     11  C   LIG    1       -1.416  -2.058  -0.121  0.00  0.00    +0.030 C 
BRANCH  11  12
ATOM     12  C   LIG    1       -1.433  -0.534   0.013  0.00  0.00    +0.030 C 
BRANCH  12  14
ATOM     13  C   LIG    1       -0.019   1.526   0.010  0.00  0.00    +0.030 C 
ATOM     14  C   LIG    1        0.002  -0.004   0.002  0.00  0.00    -0.030 C 
ATOM     15  C   LIG    1        0.742  -0.511   1.242  0.00  0.00    +0.020 C 
ENDBRANCH  12  14
ENDBRANCH  11  12
ENDBRANCH  10  11
ENDBRANCH   1  10
TORSDOF 4
ENDMDL
MODEL      376
REMARK  Name = ZINC001208737139
REMARK                            x       y       z     vdW  Elec       q    Type
REMARK                         _______ _______ _______ _____ _____    ______ ____
ROOT
ATOM      1  C   LIG    1        0.718  -0.497  -1.257  0.00  0.00    -0.020 C 
ATOM      2  C   LIG    1        2.189  -0.075  -1.207  0.00  0.00    +0.040 C 
ATOM      3  C   LIG    1        2.914  -0.640  -2.432  0.00  0.00    +0.050 C 
ATOM      4  C   LIG    1        2.748  -2.161  -2.459  0.00  0.00    +0.250 C 
ATOM      5  N   LIG    1        1.322  -2.500  -2.533  0.00  0.00    -0.380 N 
ATOM      6  H   LIG    1        0.915  -2.063  -3.347  0.00  0.00    +0.420 HD
ATOM      7  C   LIG    1        0.633  -2.024  -1.328  0.00  0.00    +0.250 C 
ENDROOT
BRANCH   1   9
ATOM      8  C   LIG    1       -0.019   1.526   0.010  0.00  0.00    +0.030 C 
ATOM      9  C   LIG    1        0.002  -0.004   0.002  0.00  0.00    +0.020 C 
ENDBRANCH   1   9
BRANCH   5  10
ATOM     10  C   LIG    1        1.171  -3.958  -2.636  0.00  0.00    +0.250 C 
BRANCH  10  11
ATOM     11  C   LIG    1        1.772  -4.441  -3.958  0.00  0.00    +0.030 C 
BRANCH  11  12
ATOM     12  C   LIG    1        1.615  -5.959  -4.065  0.00  0.00    +0.030 C 
BRANCH  12  13
ATOM     13  C   LIG    1        2.216  -6.442  -5.386  0.00  0.00    -0.030 C 
ATOM     14  C   LIG    1        1.949  -7.939  -5.551  0.00  0.00    +0.030 C 
ATOM     15  C   LIG    1        3.725  -6.190  -5.383  0.00  0.00    +0.020 C 
ENDBRANCH  12  13
ENDBRANCH  11  12
ENDBRANCH  10  11
ENDBRANCH   5  10
TORSDOF 5
ENDMDL
MODEL      377
REMARK  Name = ZINC001208736157
REMARK                            x       y       z     vdW  Elec       q    Type
REMARK                         _______ _______ _______ _____ _____    ______ ____
ROOT
ATOM      1  N   LIG    1       -4.245  -0.274  -2.522  0.00  0.00    -0.380 N 
ATOM      2  C   LIG    1       -3.590  -0.938  -3.656  0.00  0.00    +0.240 C 
ATOM      3  C   LIG    1       -4.236  -0.476  -4.964  0.00  0.00    +0.060 C 
ATOM      4  C   LIG    1       -5.724  -0.838  -4.947  0.00  0.00    -0.020 C 
ATOM      5  C   LIG    1       -6.381  -0.202  -3.719  0.00  0.00    +0.060 C 
ATOM      6  C   LIG    1       -6.393  -0.311  -6.218  0.00  0.00    +0.050 C 
ATOM      7  C   LIG    1       -5.655  -0.675  -2.458  0.00  0.00    +0.170 C 
ATOM      8  C   LIG    1       -5.750  -2.199  -2.358  0.00  0.00    +0.070 C 
ATOM      9  H   LIG    1       -4.185   0.726  -2.639  0.00  0.00    +0.420 HD
ENDROOT
BRANCH   1  10
ATOM     10  C   LIG    1       -3.571  -0.661  -1.275  0.00  0.00    +0.250 C 
BRANCH  10  11
ATOM     11  C   LIG    1       -2.135  -0.131  -1.286  0.00  0.00    +0.030 C 
BRANCH  11  12
ATOM     12  C   LIG    1       -1.433  -0.534   0.013  0.00  0.00    +0.030 C 
BRANCH  12  14
ATOM     13  C   LIG    1       -0.019   1.526   0.010  0.00  0.00    +0.020 C 
ATOM     14  C   LIG    1        0.002  -0.004   0.002  0.00  0.00    -0.030 C 
ATOM     15  C   LIG    1        0.742  -0.511   1.242  0.00  0.00    +0.030 C 
ENDBRANCH  12  14
ENDBRANCH  11  12
ENDBRANCH  10  11
ENDBRANCH   1  10
TORSDOF 4
ENDMDL
MODEL      378
REMARK  Name = ZINC001208728623
REMARK                            x       y       z     vdW  Elec       q    Type
REMARK                         _______ _______ _______ _____ _____    ______ ____
ROOT
ATOM      1  N   LIG    1       -2.760  -3.696   1.851  0.00  0.00    -0.380 N 
ATOM      2  C   LIG    1       -3.144  -3.552   0.468  0.00  0.00    +0.240 C 
ATOM      3  C   LIG    1       -4.612  -3.099   0.431  0.00  0.00    +0.050 C 
ATOM      4  C   LIG    1       -5.556  -4.205   0.543  0.00  0.00    +0.030 C 
ATOM      5  C   LIG    1       -5.381  -4.951   1.889  0.00  0.00    +0.020 C 
ATOM      6  C   LIG    1       -4.144  -5.806   1.814  0.00  0.00    +0.060 C 
ATOM      7  C   LIG    1       -2.874  -5.096   2.312  0.00  0.00    +0.160 C 
ATOM      8  C   LIG    1       -1.652  -5.874   1.819  0.00  0.00    +0.080 C 
ATOM      9  H   LIG    1       -3.356  -3.113   2.420  0.00  0.00    +0.420 HD
ENDROOT
BRANCH   1  10
ATOM     10  C   LIG    1       -1.368  -3.252   2.009  0.00  0.00    +0.250 C 
BRANCH  10  11
ATOM     11  C   LIG    1       -1.272  -1.756   1.707  0.00  0.00    +0.070 C 
BRANCH  11  13
ATOM     12  C   LIG    1        0.805  -0.634   1.081  0.00  0.00    +0.000 C 
ATOM     13  C   LIG    1        0.125  -1.272   2.001  0.00  0.00    -0.070 C 
BRANCH  12  15
ATOM     14  C   LIG    1        0.360   1.278  -0.433  0.00  0.00    +0.030 C 
ATOM     15  C   LIG    1        0.130  -0.216  -0.200  0.00  0.00    +0.040 C 
ENDBRANCH  12  15
ENDBRANCH  11  13
ENDBRANCH  10  11
ENDBRANCH   1  10
TORSDOF 4
ENDMDL
MODEL      379
REMARK  Name = ZINC001208899091
REMARK                            x       y       z     vdW  Elec       q    Type
REMARK                         _______ _______ _______ _____ _____    ______ ____
ROOT
ATOM      1  C   LIG    1        0.916  -0.512  -1.621  0.00  0.00    +0.250 C 
ENDROOT
BRANCH   1   2
ATOM      2  C   LIG    1       -0.264   0.026  -2.432  0.00  0.00    -0.080 C 
ATOM      3  C   LIG    1       -0.213  -0.549  -3.849  0.00  0.00    +0.030 C 
ATOM      4  C   LIG    1       -1.393  -0.011  -4.661  0.00  0.00    +0.020 C 
ATOM      5  C   LIG    1       -2.704  -0.424  -3.990  0.00  0.00    +0.010 C 
ATOM      6  C   LIG    1       -2.755   0.151  -2.573  0.00  0.00    +0.020 C 
ATOM      7  C   LIG    1       -0.183   1.552  -2.498  0.00  0.00    +0.050 C 
ATOM      8  C   LIG    1       -1.575  -0.387  -1.761  0.00  0.00    +0.010 C 
ENDBRANCH   1   2
BRANCH   1  10
ATOM      9  C   LIG    1        1.043   1.338  -0.099  0.00  0.00    +0.310 C 
ATOM     10  N   LIG    1        0.774  -0.101  -0.217  0.00  0.00    -0.380 N 
ATOM     11  H   LIG    1       -0.166  -0.294   0.096  0.00  0.00    +0.420 HD
BRANCH  10  12
ATOM     12  C   LIG    1        1.729  -0.848   0.611  0.00  0.00    +0.050 C 
ATOM     13  C   LIG    1        3.154  -0.555   0.136  0.00  0.00    +0.080 C 
ATOM     14  C   LIG    1        1.449  -2.347   0.488  0.00  0.00    +0.090 C 
ATOM     15  C   LIG    1        1.581  -0.419   2.072  0.00  0.00    +0.090 C 
ENDBRANCH  10  12
ENDBRANCH   1  10
TORSDOF 3
ENDMDL
MODEL      380
REMARK  Name = ZINC001208894880
REMARK                            x       y       z     vdW  Elec       q    Type
REMARK                         _______ _______ _______ _____ _____    ______ ____
ROOT
ATOM      1  C   LIG    1        1.732  -0.022  -0.878  0.00  0.00    +0.250 C 
ENDROOT
BRANCH   1   2
ATOM      2  C   LIG    1        2.096   1.454  -1.049  0.00  0.00    -0.070 C 
ATOM      3  C   LIG    1        1.740   2.218   0.228  0.00  0.00    +0.020 C 
ATOM      4  C   LIG    1        2.104   3.694   0.057  0.00  0.00    +0.020 C 
ATOM      5  C   LIG    1        3.605   3.821  -0.212  0.00  0.00    +0.010 C 
ATOM      6  C   LIG    1        3.961   3.057  -1.489  0.00  0.00    +0.020 C 
ATOM      7  C   LIG    1        1.315   2.038  -2.228  0.00  0.00    +0.060 C 
ATOM      8  C   LIG    1        3.597   1.581  -1.318  0.00  0.00    +0.040 C 
ENDBRANCH   1   2
BRANCH   1   9
ATOM      9  N   LIG    1        0.306  -0.213  -1.178  0.00  0.00    -0.370 N 
ATOM     10  H   LIG    1        0.004  -1.108  -0.823  0.00  0.00    +0.420 HD
BRANCH   9  11
ATOM     11  C   LIG    1       -0.475   0.856  -0.543  0.00  0.00    +0.160 C 
ATOM     12  C   LIG    1       -0.460   0.665   0.975  0.00  0.00    +0.090 C 
ATOM     13  C   LIG    1       -1.918   0.802  -1.049  0.00  0.00    +0.070 C 
ENDBRANCH   9  11
BRANCH   9  15
ATOM     14  C   LIG    1        0.713  -1.420  -3.270  0.00  0.00    +0.080 C 
ATOM     15  C   LIG    1        0.103  -0.170  -2.633  0.00  0.00    +0.220 C 
ENDBRANCH   9  15
ENDBRANCH   1   9
TORSDOF 4
ENDMDL
MODEL      381
REMARK  Name = ZINC001208896408
REMARK                            x       y       z     vdW  Elec       q    Type
REMARK                         _______ _______ _______ _____ _____    ______ ____
ROOT
ATOM      1  C   LIG    1        1.042  -0.965  -3.469  0.00  0.00    +0.250 C 
ENDROOT
BRANCH   1   2
ATOM      2  C   LIG    1        0.826  -0.702  -4.960  0.00  0.00    -0.080 C 
ATOM      3  C   LIG    1        1.798  -1.557  -5.775  0.00  0.00    +0.030 C 
ATOM      4  C   LIG    1        1.582  -1.294  -7.267  0.00  0.00    +0.020 C 
ATOM      5  C   LIG    1        0.144  -1.655  -7.646  0.00  0.00    +0.010 C 
ATOM      6  C   LIG    1       -0.828  -0.800  -6.831  0.00  0.00    +0.020 C 
ATOM      7  C   LIG    1        1.075   0.778  -5.258  0.00  0.00    +0.040 C 
ATOM      8  C   LIG    1       -0.612  -1.063  -5.339  0.00  0.00    +0.000 C 
ENDBRANCH   1   2
BRANCH   1   9
ATOM      9  N   LIG    1       -0.144  -0.530  -2.718  0.00  0.00    -0.390 N 
ATOM     10  C   LIG    1       -0.275   0.930  -2.814  0.00  0.00    +0.320 C 
ATOM     11  H   LIG    1       -0.966  -0.968  -3.105  0.00  0.00    +0.420 HD
BRANCH   9  12
ATOM     12  C   LIG    1        0.000  -0.917  -1.308  0.00  0.00    +0.160 C 
ATOM     13  C   LIG    1        1.325  -0.379  -0.764  0.00  0.00    +0.080 C 
BRANCH  12  15
ATOM     14  C   LIG    1       -1.389  -2.971  -1.612  0.00  0.00    +0.030 C 
ATOM     15  C   LIG    1       -0.015  -2.443  -1.194  0.00  0.00    +0.050 C 
ENDBRANCH  12  15
ENDBRANCH   9  12
ENDBRANCH   1   9
TORSDOF 4
ENDMDL
MODEL      382
REMARK  Name = ZINC000308234216
REMARK                            x       y       z     vdW  Elec       q    Type
REMARK                         _______ _______ _______ _____ _____    ______ ____
ROOT
ATOM      1  N   LIG    1       -2.742  -3.952  -0.015  0.00  0.00    -0.390 N 
ATOM      2  H   LIG    1       -2.264  -4.211   0.835  0.00  0.00    +0.420 HD
ENDROOT
BRANCH   1   3
ATOM      3  C   LIG    1       -2.785  -2.488  -0.126  0.00  0.00    +0.240 C 
BRANCH   3   4
ATOM      4  C   LIG    1       -3.406  -1.899   1.142  0.00  0.00    +0.020 C 
BRANCH   4   5
ATOM      5  C   LIG    1       -3.332  -0.372   1.084  0.00  0.00    +0.020 C 
BRANCH   5   7
ATOM      6  C   LIG    1       -3.880   1.745   2.294  0.00  0.00    +0.020 C 
ATOM      7  C   LIG    1       -3.953   0.217   2.352  0.00  0.00    +0.010 C 
ENDBRANCH   5   7
ENDBRANCH   4   5
ENDBRANCH   3   4
ENDBRANCH   1   3
BRANCH   1   8
ATOM      8  C   LIG    1       -2.024  -4.510  -1.169  0.00  0.00    +0.250 C 
BRANCH   8   9
ATOM      9  C   LIG    1       -0.558  -4.077  -1.115  0.00  0.00    -0.030 C 
ATOM     10  C   LIG    1        0.160  -4.550  -2.381  0.00  0.00    +0.070 C 
ATOM     11  C   LIG    1        0.112  -4.697   0.113  0.00  0.00    +0.030 C 
ENDBRANCH   8   9
ENDBRANCH   1   8
BRANCH   1  12
ATOM     12  C   LIG    1       -4.112  -4.482   0.012  0.00  0.00    +0.240 C 
BRANCH  12  13
ATOM     13  C   LIG    1       -4.070  -5.992   0.252  0.00  0.00    +0.030 C 
ATOM     14  C   LIG    1       -5.497  -6.544   0.281  0.00  0.00    +0.060 C 
ENDBRANCH  12  13
ENDBRANCH   1  12
TORSDOF 8
ENDMDL
MODEL      383
REMARK  Name = ZINC001208898418
REMARK                            x       y       z     vdW  Elec       q    Type
REMARK                         _______ _______ _______ _____ _____    ______ ____
ROOT
ATOM      1  C   LIG    1       -2.881  -2.462  -0.139  0.00  0.00    +0.250 C 
ENDROOT
BRANCH   1   2
ATOM      2  C   LIG    1       -2.697  -3.973  -0.291  0.00  0.00    -0.080 C 
ATOM      3  C   LIG    1       -2.084  -4.543   0.990  0.00  0.00    +0.010 C 
ATOM      4  C   LIG    1       -1.900  -6.054   0.838  0.00  0.00    +0.020 C 
ATOM      5  C   LIG    1       -3.258  -6.712   0.586  0.00  0.00    +0.010 C 
ATOM      6  C   LIG    1       -3.871  -6.141  -0.694  0.00  0.00    +0.020 C 
ATOM      7  C   LIG    1       -1.767  -4.257  -1.472  0.00  0.00    +0.040 C 
ATOM      8  C   LIG    1       -4.056  -4.630  -0.543  0.00  0.00    +0.030 C 
ENDBRANCH   1   2
BRANCH   1   9
ATOM      9  N   LIG    1       -1.577  -1.831   0.101  0.00  0.00    -0.390 N 
ATOM     10  H   LIG    1       -0.997  -2.454   0.642  0.00  0.00    +0.420 HD
BRANCH   9  11
ATOM     11  C   LIG    1       -1.769  -0.576   0.840  0.00  0.00    +0.240 C 
ATOM     12  C   LIG    1       -2.307  -0.884   2.238  0.00  0.00    +0.080 C 
ENDBRANCH   9  11
BRANCH   9  13
ATOM     13  C   LIG    1       -0.925  -1.548  -1.185  0.00  0.00    +0.240 C 
BRANCH  13  15
ATOM     14  C   LIG    1        1.176  -0.749  -2.275  0.00  0.00    +0.060 C 
ATOM     15  C   LIG    1        0.497  -1.043  -0.935  0.00  0.00    +0.010 C 
ENDBRANCH  13  15
ENDBRANCH   9  13
ENDBRANCH   1   9
TORSDOF 5
ENDMDL
MODEL      384
REMARK  Name = ZINC001208894805
REMARK                            x       y       z     vdW  Elec       q    Type
REMARK                         _______ _______ _______ _____ _____    ______ ____
ROOT
ATOM      1  C   LIG    1       -2.869  -2.120   0.239  0.00  0.00    +0.260 C 
ENDROOT
BRANCH   1   2
ATOM      2  C   LIG    1       -3.269  -3.541   0.641  0.00  0.00    -0.080 C 
ATOM      3  C   LIG    1       -4.792  -3.625   0.768  0.00  0.00    +0.030 C 
ATOM      4  C   LIG    1       -5.192  -5.046   1.170  0.00  0.00    +0.020 C 
ATOM      5  C   LIG    1       -4.715  -6.032   0.102  0.00  0.00    +0.010 C 
ATOM      6  C   LIG    1       -3.192  -5.948  -0.026  0.00  0.00    +0.020 C 
ATOM      7  C   LIG    1       -2.625  -3.893   1.983  0.00  0.00    +0.040 C 
ATOM      8  C   LIG    1       -2.792  -4.527  -0.428  0.00  0.00    +0.010 C 
ENDBRANCH   1   2
BRANCH   1   9
ATOM      9  N   LIG    1       -1.523  -2.139  -0.350  0.00  0.00    -0.390 N 
ATOM     10  C   LIG    1       -0.543  -2.510   0.680  0.00  0.00    +0.310 C 
ATOM     11  H   LIG    1       -1.494  -2.813  -1.101  0.00  0.00    +0.420 HD
BRANCH   9  12
ATOM     12  C   LIG    1       -1.200  -0.806  -0.875  0.00  0.00    +0.250 C 
BRANCH  12  14
ATOM     13  C   LIG    1       -0.011  -1.793  -2.838  0.00  0.00    +0.040 C 
ATOM     14  C   LIG    1        0.129  -0.864  -1.631  0.00  0.00    -0.030 C 
ATOM     15  C   LIG    1        0.505   0.540  -2.110  0.00  0.00    +0.070 C 
ENDBRANCH  12  14
ENDBRANCH   9  12
ENDBRANCH   1   9
TORSDOF 4
ENDMDL
MODEL      385
REMARK  Name = ZINC001208896409
REMARK                            x       y       z     vdW  Elec       q    Type
REMARK                         _______ _______ _______ _____ _____    ______ ____
ROOT
ATOM      1  C   LIG    1        1.398   1.244  -1.300  0.00  0.00    +0.260 C 
ENDROOT
BRANCH   1   2
ATOM      2  C   LIG    1        2.445   2.249  -1.785  0.00  0.00    -0.080 C 
ATOM      3  C   LIG    1        2.874   1.891  -3.209  0.00  0.00    +0.010 C 
ATOM      4  C   LIG    1        3.920   2.896  -3.695  0.00  0.00    +0.020 C 
ATOM      5  C   LIG    1        3.320   4.303  -3.682  0.00  0.00    +0.010 C 
ATOM      6  C   LIG    1        2.890   4.662  -2.258  0.00  0.00    +0.020 C 
ATOM      7  C   LIG    1        3.662   2.206  -0.859  0.00  0.00    +0.040 C 
ATOM      8  C   LIG    1        1.844   3.656  -1.772  0.00  0.00    +0.030 C 
ENDBRANCH   1   2
BRANCH   1   9
ATOM      9  N   LIG    1        2.069   0.016  -0.852  0.00  0.00    -0.380 N 
ATOM     10  C   LIG    1        2.687  -0.652  -2.005  0.00  0.00    +0.310 C 
ATOM     11  H   LIG    1        2.782   0.249  -0.177  0.00  0.00    +0.420 HD
BRANCH   9  12
ATOM     12  C   LIG    1        1.085  -0.883  -0.235  0.00  0.00    +0.160 C 
ATOM     13  C   LIG    1        0.091  -1.357  -1.296  0.00  0.00    +0.080 C 
BRANCH  12  15
ATOM     14  C   LIG    1        2.732  -1.627   1.491  0.00  0.00    +0.030 C 
ATOM     15  C   LIG    1        1.805  -2.092   0.366  0.00  0.00    +0.050 C 
ENDBRANCH  12  15
ENDBRANCH   9  12
ENDBRANCH   1   9
TORSDOF 4
ENDMDL
MODEL      386
REMARK  Name = ZINC000308327185
REMARK                            x       y       z     vdW  Elec       q    Type
REMARK                         _______ _______ _______ _____ _____    ______ ____
ROOT
ATOM      1  N   LIG    1       -0.923  -2.634  -1.380  0.00  0.00    -0.380 N 
ATOM      2  C   LIG    1        0.508  -2.304  -1.433  0.00  0.00    +0.310 C 
ATOM      3  H   LIG    1       -1.361  -2.367  -2.249  0.00  0.00    +0.420 HD
ENDROOT
BRANCH   1   4
ATOM      4  C   LIG    1       -1.552  -1.907  -0.270  0.00  0.00    +0.160 C 
ATOM      5  C   LIG    1       -0.964  -2.392   1.056  0.00  0.00    +0.080 C 
BRANCH   4   6
ATOM      6  C   LIG    1       -3.061  -2.163  -0.283  0.00  0.00    +0.050 C 
BRANCH   6   8
ATOM      7  C   LIG    1       -5.173  -1.841  -1.578  0.00  0.00    +0.030 C 
ATOM      8  C   LIG    1       -3.663  -1.593  -1.569  0.00  0.00    -0.010 C 
ENDBRANCH   6   8
ENDBRANCH   4   6
ENDBRANCH   1   4
BRANCH   1   9
ATOM      9  C   LIG    1       -1.085  -4.079  -1.174  0.00  0.00    +0.240 C 
BRANCH   9  10
ATOM     10  C   LIG    1       -0.526  -4.833  -2.382  0.00  0.00    +0.040 C 
BRANCH  10  11
ATOM     11  C   LIG    1       -0.695  -6.338  -2.167  0.00  0.00    -0.060 C 
ATOM     12  C   LIG    1        0.062  -6.762  -0.906  0.00  0.00    +0.030 C 
ATOM     13  C   LIG    1       -0.136  -7.092  -3.375  0.00  0.00    +0.040 C 
ATOM     14  C   LIG    1       -2.180  -6.667  -2.004  0.00  0.00    +0.030 C 
ENDBRANCH  10  11
ENDBRANCH   9  10
ENDBRANCH   1   9
TORSDOF 6
ENDMDL
MODEL      387
REMARK  Name = ZINC000308327186
REMARK                            x       y       z     vdW  Elec       q    Type
REMARK                         _______ _______ _______ _____ _____    ______ ____
ROOT
ATOM      1  N   LIG    1       -0.726  -2.462   1.110  0.00  0.00    -0.380 N 
ATOM      2  C   LIG    1       -0.512  -3.915   1.079  0.00  0.00    +0.310 C 
ATOM      3  H   LIG    1       -1.298  -2.223   1.905  0.00  0.00    +0.420 HD
ENDROOT
BRANCH   1   4
ATOM      4  C   LIG    1       -1.401  -2.040  -0.124  0.00  0.00    +0.160 C 
ATOM      5  C   LIG    1       -0.597  -2.519  -1.335  0.00  0.00    +0.080 C 
BRANCH   4   6
ATOM      6  C   LIG    1       -2.804  -2.647  -0.171  0.00  0.00    +0.050 C 
BRANCH   6   8
ATOM      7  C   LIG    1       -5.086  -2.579   0.846  0.00  0.00    +0.030 C 
ATOM      8  C   LIG    1       -3.648  -2.070   0.968  0.00  0.00    -0.000 C 
ENDBRANCH   6   8
ENDBRANCH   4   6
ENDBRANCH   1   4
BRANCH   1   9
ATOM      9  C   LIG    1        0.571  -1.779   1.217  0.00  0.00    +0.240 C 
BRANCH   9  10
ATOM     10  C   LIG    1        1.206  -2.102   2.571  0.00  0.00    +0.040 C 
BRANCH  10  11
ATOM     11  C   LIG    1        2.557  -1.391   2.683  0.00  0.00    -0.060 C 
ATOM     12  C   LIG    1        3.479  -1.868   1.559  0.00  0.00    +0.030 C 
ATOM     13  C   LIG    1        3.192  -1.713   4.037  0.00  0.00    +0.040 C 
ATOM     14  C   LIG    1        2.348   0.121   2.564  0.00  0.00    +0.030 C 
ENDBRANCH  10  11
ENDBRANCH   9  10
ENDBRANCH   1   9
TORSDOF 6
ENDMDL
MODEL      388
REMARK  Name = ZINC001174555424
REMARK                            x       y       z     vdW  Elec       q    Type
REMARK                         _______ _______ _______ _____ _____    ______ ____
ROOT
ATOM      1  C   LIG    1       -3.541  -0.714   0.032  0.00  0.00    +0.260 A 
ATOM      2  C   LIG    1       -4.776  -0.033   0.042  0.00  0.00    -0.150 A 
ATOM      3  C   LIG    1       -4.854   1.366   0.044  0.00  0.00    +0.410 A 
ATOM      4  N   LIG    1       -6.027   1.956   0.052  0.00  0.00    -0.460 N 
ATOM      5  C   LIG    1       -7.170   1.282   0.059  0.00  0.00    +0.260 A 
ATOM      6  C   LIG    1       -7.201  -0.079   0.058  0.00  0.00    +0.100 A 
ATOM      7  H   LIG    1       -6.060   2.925   0.053  0.00  0.00    +0.450 HD
ATOM      8  C   LIG    1       -5.981  -0.782   0.049  0.00  0.00    +0.040 A 
ATOM      9  C   LIG    1       -5.928  -2.183   0.047  0.00  0.00    -0.010 A 
ATOM     10  C   LIG    1       -4.720  -2.815   0.037  0.00  0.00    +0.160 A 
ATOM     11  C   LIG    1       -3.531  -2.094   0.025  0.00  0.00    -0.040 A 
ENDROOT
BRANCH   1  12
ATOM     12  N   LIG    1       -2.345  -0.001   0.024  0.00  0.00    -0.650 N 
ATOM     13  H   LIG    1       -2.358   0.969   0.030  0.00  0.00    +0.410 HD
BRANCH  12  16
ATOM     14  C   LIG    1       -0.018   1.503   0.010  0.00  0.00    +0.070 C 
ATOM     15  C   LIG    1        0.002  -0.004   0.002  0.00  0.00    -0.160 C 
ATOM     16  C   LIG    1       -1.132  -0.680   0.009  0.00  0.00    +0.190 C 
ATOM     17  C   LIG    1        1.317  -0.740  -0.015  0.00  0.00    +0.100 C 
ENDBRANCH  12  16
ENDBRANCH   1  12
TORSDOF 2
ENDMDL
MODEL      389
REMARK  Name = ZINC001174558168
REMARK                            x       y       z     vdW  Elec       q    Type
REMARK                         _______ _______ _______ _____ _____    ______ ____
ROOT
ATOM      1  C   LIG    1       -3.543  -0.715   0.032  0.00  0.00    +0.280 A 
ATOM      2  C   LIG    1       -3.516  -2.115   0.030  0.00  0.00    +0.000 A 
ATOM      3  C   LIG    1       -4.667  -2.838   0.037  0.00  0.00    +0.140 A 
ATOM      4  C   LIG    1       -5.906  -2.177   0.047  0.00  0.00    -0.150 A 
ATOM      5  C   LIG    1       -7.121  -2.878   0.055  0.00  0.00    +0.430 A 
ATOM      6  N   LIG    1       -8.257  -2.220   0.065  0.00  0.00    -0.470 N 
ATOM      7  C   LIG    1       -8.320  -0.895   0.067  0.00  0.00    +0.270 A 
ATOM      8  C   LIG    1       -7.199  -0.123   0.059  0.00  0.00    +0.080 A 
ATOM      9  H   LIG    1       -9.086  -2.724   0.071  0.00  0.00    +0.450 HD
ATOM     10  C   LIG    1       -5.942  -0.757   0.049  0.00  0.00    +0.060 A 
ATOM     11  C   LIG    1       -4.743  -0.034   0.047  0.00  0.00    -0.060 A 
ENDROOT
BRANCH   1  12
ATOM     12  N   LIG    1       -2.345  -0.001   0.024  0.00  0.00    -0.640 N 
ATOM     13  H   LIG    1       -2.358   0.969   0.030  0.00  0.00    +0.420 HD
BRANCH  12  16
ATOM     14  C   LIG    1       -0.018   1.503   0.010  0.00  0.00    +0.090 C 
ATOM     15  C   LIG    1        0.002  -0.004   0.002  0.00  0.00    -0.150 C 
ATOM     16  C   LIG    1       -1.132  -0.680   0.009  0.00  0.00    +0.180 C 
ATOM     17  C   LIG    1        1.317  -0.740  -0.015  0.00  0.00    +0.100 C 
ENDBRANCH  12  16
ENDBRANCH   1  12
TORSDOF 2
ENDMDL
MODEL      390
REMARK  Name = ZINC000060032426
REMARK                            x       y       z     vdW  Elec       q    Type
REMARK                         _______ _______ _______ _____ _____    ______ ____
ROOT
ATOM      1  N   LIG    1        1.366  -3.972  -2.604  0.00  0.00    -0.390 N 
ATOM      2  C   LIG    1       -0.027  -4.327  -2.909  0.00  0.00    +0.310 C 
ATOM      3  H   LIG    1        1.669  -4.476  -1.784  0.00  0.00    +0.420 HD
ENDROOT
BRANCH   1   4
ATOM      4  C   LIG    1        1.460  -2.528  -2.355  0.00  0.00    +0.250 C 
BRANCH   4   5
ATOM      5  C   LIG    1        0.667  -2.175  -1.094  0.00  0.00    +0.030 C 
BRANCH   5   6
ATOM      6  C   LIG    1        0.765  -0.671  -0.834  0.00  0.00    +0.020 C 
BRANCH   6   8
ATOM      7  C   LIG    1        0.071   1.186   0.686  0.00  0.00    +0.020 C 
ATOM      8  C   LIG    1       -0.027  -0.318   0.426  0.00  0.00    +0.010 C 
ENDBRANCH   6   8
ENDBRANCH   5   6
ENDBRANCH   4   5
ENDBRANCH   1   4
BRANCH   1   9
ATOM      9  C   LIG    1        2.222  -4.329  -3.743  0.00  0.00    +0.250 C 
BRANCH   9  10
ATOM     10  C   LIG    1        2.233  -5.849  -3.916  0.00  0.00    -0.020 C 
ATOM     11  C   LIG    1        3.014  -6.213  -5.181  0.00  0.00    +0.030 C 
ATOM     12  C   LIG    1        3.025  -7.733  -5.353  0.00  0.00    +0.020 C 
ATOM     13  C   LIG    1        3.693  -8.380  -4.138  0.00  0.00    +0.010 C 
ATOM     14  C   LIG    1        2.912  -8.016  -2.873  0.00  0.00    +0.020 C 
ATOM     15  C   LIG    1        2.901  -6.496  -2.701  0.00  0.00    +0.010 C 
ENDBRANCH   9  10
ENDBRANCH   1   9
TORSDOF 6
ENDMDL
MODEL      391
REMARK  Name = ZINC001174724139
REMARK                            x       y       z     vdW  Elec       q    Type
REMARK                         _______ _______ _______ _____ _____    ______ ____
ROOT
ATOM      1  C   LIG    1       -2.894  -4.010  -0.038  0.00  0.00    +0.030 C 
ENDROOT
BRANCH   1   2
ATOM      2  C   LIG    1       -2.892  -2.480  -0.029  0.00  0.00    -0.020 C 
BRANCH   2   3
ATOM      3  C   LIG    1       -3.582  -1.977   1.241  0.00  0.00    +0.000 C 
ATOM      4  C   LIG    1       -3.705  -0.453   1.184  0.00  0.00    +0.010 C 
ENDBRANCH   2   3
BRANCH   2   5
ATOM      5  C   LIG    1       -1.449  -1.972  -0.061  0.00  0.00    +0.010 C 
BRANCH   5   6
ATOM      6  C   LIG    1       -0.803  -2.356  -1.394  0.00  0.00    +0.000 C 
BRANCH   6   8
ATOM      7  C   LIG    1        1.239  -2.119  -2.813  0.00  0.00    +0.000 C 
ATOM      8  C   LIG    1        0.593  -1.736  -1.481  0.00  0.00    -0.010 C 
ENDBRANCH   6   8
ENDBRANCH   5   6
ENDBRANCH   2   5
ENDBRANCH   1   2
BRANCH   1   9
ATOM      9  C   LIG    1       -4.335  -4.518  -0.132  0.00  0.00    +0.030 C 
BRANCH   9  10
ATOM     10  C   LIG    1       -4.337  -6.048  -0.141  0.00  0.00    +0.250 C 
BRANCH  10  11
ATOM     11  N   LIG    1       -5.720  -6.535  -0.231  0.00  0.00    -0.390 N 
ATOM     12  C   LIG    1       -6.296  -6.138  -1.522  0.00  0.00    +0.300 C 
ATOM     13  H   LIG    1       -6.266  -6.136   0.518  0.00  0.00    +0.420 HD
BRANCH  11  14
ATOM     14  C   LIG    1       -5.731  -8.000  -0.119  0.00  0.00    +0.250 C 
ATOM     15  C   LIG    1       -7.177  -8.498  -0.088  0.00  0.00    +0.080 C 
ENDBRANCH  11  14
ENDBRANCH  10  11
ENDBRANCH   9  10
ENDBRANCH   1   9
TORSDOF 9
ENDMDL
MODEL      392
REMARK  Name = ZINC001174622528
REMARK                            x       y       z     vdW  Elec       q    Type
REMARK                         _______ _______ _______ _____ _____    ______ ____
ROOT
ATOM      1  C   LIG    1        0.718  -0.497  -1.257  0.00  0.00    -0.010 C 
ATOM      2  C   LIG    1       -0.090  -0.099  -2.495  0.00  0.00    +0.050 C 
ATOM      3  C   LIG    1        0.593  -0.664  -3.743  0.00  0.00    +0.060 C 
ATOM      4  C   LIG    1        0.726  -2.182  -3.601  0.00  0.00    +0.170 C 
ATOM      5  N   LIG    1        1.531  -2.498  -2.415  0.00  0.00    -0.380 N 
ATOM      6  H   LIG    1        1.662  -3.497  -2.355  0.00  0.00    +0.420 HD
ATOM      7  C   LIG    1        1.410  -2.752  -4.846  0.00  0.00    +0.090 C 
ATOM      8  C   LIG    1        0.848  -2.021  -1.207  0.00  0.00    +0.250 C 
ENDROOT
BRANCH   1  10
ATOM      9  C   LIG    1       -0.019   1.526   0.010  0.00  0.00    +0.030 C 
ATOM     10  C   LIG    1        0.002  -0.004   0.002  0.00  0.00    +0.020 C 
ENDBRANCH   1  10
BRANCH   5  11
ATOM     11  C   LIG    1        2.840  -1.840  -2.524  0.00  0.00    +0.230 C 
BRANCH  11  12
ATOM     12  C   LIG    1        3.725  -2.267  -1.352  0.00  0.00    +0.040 C 
BRANCH  12  13
ATOM     13  C   LIG    1        5.088  -1.582  -1.465  0.00  0.00    -0.010 C 
ATOM     14  C   LIG    1        5.808  -2.083  -2.719  0.00  0.00    +0.020 C 
ATOM     15  C   LIG    1        5.929  -1.910  -0.230  0.00  0.00    +0.040 C 
ENDBRANCH  12  13
ENDBRANCH  11  12
ENDBRANCH   5  11
TORSDOF 4
ENDMDL
MODEL      393
REMARK  Name = ZINC001210794361
REMARK                            x       y       z     vdW  Elec       q    Type
REMARK                         _______ _______ _______ _____ _____    ______ ____
ROOT
ATOM      1  C   LIG    1       -2.437  -2.614   0.146  0.00  0.00    +0.280 A 
ATOM      2  C   LIG    1       -3.577  -1.815  -0.008  0.00  0.00    +0.010 A 
ATOM      3  C   LIG    1       -4.823  -2.357   0.034  0.00  0.00    +0.130 A 
ATOM      4  C   LIG    1       -4.976  -3.739   0.235  0.00  0.00    -0.140 A 
ATOM      5  C   LIG    1       -6.240  -4.346   0.285  0.00  0.00    +0.430 A 
ATOM      6  N   LIG    1       -6.337  -5.642   0.475  0.00  0.00    -0.470 N 
ATOM      7  C   LIG    1       -5.279  -6.428   0.624  0.00  0.00    +0.260 A 
ATOM      8  C   LIG    1       -4.009  -5.937   0.591  0.00  0.00    +0.080 A 
ATOM      9  H   LIG    1       -7.220  -6.042   0.506  0.00  0.00    +0.450 HD
ATOM     10  C   LIG    1       -3.824  -4.556   0.392  0.00  0.00    +0.050 A 
ATOM     11  C   LIG    1       -2.551  -3.975   0.339  0.00  0.00    -0.060 A 
ENDROOT
BRANCH   1  12
ATOM     12  N   LIG    1       -1.172  -2.027   0.097  0.00  0.00    -0.660 N 
ATOM     13  H   LIG    1       -0.397  -2.564  -0.129  0.00  0.00    +0.420 HD
BRANCH  12  16
ATOM     14  C   LIG    1       -0.226   1.576  -0.179  0.00  0.00    +0.090 C 
ATOM     15  C   LIG    1       -0.388   0.108  -0.479  0.00  0.00    -0.030 C 
ATOM     16  C   LIG    1       -1.023  -0.674   0.374  0.00  0.00    +0.060 C 
ATOM     17  C   LIG    1       -1.586  -0.098   1.648  0.00  0.00    +0.100 C 
ENDBRANCH  12  16
ENDBRANCH   1  12
TORSDOF 2
ENDMDL
MODEL      394
REMARK  Name = ZINC001174724138
REMARK                            x       y       z     vdW  Elec       q    Type
REMARK                         _______ _______ _______ _____ _____    ______ ____
ROOT
ATOM      1  C   LIG    1       -2.858  -4.255   0.101  0.00  0.00    +0.030 C 
ENDROOT
BRANCH   1   2
ATOM      2  C   LIG    1       -2.897  -2.744  -0.136  0.00  0.00    -0.020 C 
BRANCH   2   3
ATOM      3  C   LIG    1       -1.472  -2.188  -0.120  0.00  0.00    +0.000 C 
ATOM      4  C   LIG    1       -0.696  -2.741  -1.317  0.00  0.00    +0.000 C 
ENDBRANCH   2   3
BRANCH   2   5
ATOM      5  C   LIG    1       -3.717  -2.075   0.970  0.00  0.00    +0.000 C 
BRANCH   5   6
ATOM      6  C   LIG    1       -3.861  -0.583   0.666  0.00  0.00    +0.010 C 
BRANCH   6   8
ATOM      7  C   LIG    1       -4.826   1.578   1.468  0.00  0.00    +0.010 C 
ATOM      8  C   LIG    1       -4.682   0.086   1.772  0.00  0.00    +0.000 C 
ENDBRANCH   6   8
ENDBRANCH   5   6
ENDBRANCH   2   5
ENDBRANCH   1   2
BRANCH   1   9
ATOM      9  C   LIG    1       -4.269  -4.830  -0.040  0.00  0.00    +0.030 C 
BRANCH   9  10
ATOM     10  C   LIG    1       -4.214  -6.353   0.086  0.00  0.00    +0.250 C 
BRANCH  10  11
ATOM     11  N   LIG    1       -5.569  -6.905  -0.049  0.00  0.00    -0.390 N 
ATOM     12  C   LIG    1       -6.070  -6.645  -1.404  0.00  0.00    +0.300 C 
ATOM     13  H   LIG    1       -6.179  -6.468   0.626  0.00  0.00    +0.420 HD
BRANCH  11  14
ATOM     14  C   LIG    1       -5.533  -8.354   0.191  0.00  0.00    +0.250 C 
ATOM     15  C   LIG    1       -6.959  -8.909   0.174  0.00  0.00    +0.080 C 
ENDBRANCH  11  14
ENDBRANCH  10  11
ENDBRANCH   9  10
ENDBRANCH   1   9
TORSDOF 9
ENDMDL
MODEL      395
REMARK  Name = ZINC001210794739
REMARK                            x       y       z     vdW  Elec       q    Type
REMARK                         _______ _______ _______ _____ _____    ______ ____
ROOT
ATOM      1  C   LIG    1        0.903  -2.791   2.042  0.00  0.00    +0.270 A 
ATOM      2  C   LIG    1        0.902  -4.200   1.983  0.00  0.00    -0.150 A 
ATOM      3  C   LIG    1        0.486  -4.896   0.840  0.00  0.00    +0.410 A 
ATOM      4  N   LIG    1        0.502  -6.210   0.831  0.00  0.00    -0.460 N 
ATOM      5  C   LIG    1        0.900  -6.929   1.872  0.00  0.00    +0.260 A 
ATOM      6  C   LIG    1        1.323  -6.348   3.028  0.00  0.00    +0.100 A 
ATOM      7  H   LIG    1        0.211  -6.672   0.030  0.00  0.00    +0.450 HD
ATOM      8  C   LIG    1        1.334  -4.943   3.113  0.00  0.00    +0.040 A 
ATOM      9  C   LIG    1        1.754  -4.269   4.267  0.00  0.00    -0.020 A 
ATOM     10  C   LIG    1        1.746  -2.905   4.297  0.00  0.00    +0.160 A 
ATOM     11  C   LIG    1        1.330  -2.165   3.196  0.00  0.00    -0.040 A 
ENDROOT
BRANCH   1  12
ATOM     12  N   LIG    1        0.484  -2.040   0.947  0.00  0.00    -0.660 N 
ATOM     13  H   LIG    1        0.276  -2.481   0.108  0.00  0.00    +0.410 HD
BRANCH  12  16
ATOM     14  C   LIG    1        0.921   1.624   0.368  0.00  0.00    +0.100 C 
ATOM     15  C   LIG    1        1.051   0.128   0.250  0.00  0.00    -0.020 C 
ATOM     16  C   LIG    1        0.364  -0.660   1.056  0.00  0.00    +0.060 C 
ATOM     17  C   LIG    1       -0.550  -0.063   2.094  0.00  0.00    +0.110 C 
ENDBRANCH  12  16
ENDBRANCH   1  12
TORSDOF 2
ENDMDL
MODEL      396
REMARK  Name = ZINC000379388074
REMARK                            x       y       z     vdW  Elec       q    Type
REMARK                         _______ _______ _______ _____ _____    ______ ____
ROOT
ATOM      1  N   LIG    1       -2.676  -2.233   0.002  0.00  0.00    -0.380 N 
ATOM      2  H   LIG    1       -3.382  -1.954   0.666  0.00  0.00    +0.420 HD
ENDROOT
BRANCH   1   3
ATOM      3  C   LIG    1       -2.557  -3.698  -0.001  0.00  0.00    +0.160 C 
ATOM      4  C   LIG    1       -1.417  -4.116  -0.931  0.00  0.00    +0.090 C 
BRANCH   3   5
ATOM      5  C   LIG    1       -2.263  -4.188   1.419  0.00  0.00    +0.040 C 
BRANCH   5   6
ATOM      6  C   LIG    1       -2.273  -5.717   1.442  0.00  0.00    -0.010 C 
ATOM      7  C   LIG    1       -3.684  -6.223   1.139  0.00  0.00    +0.020 C 
ATOM      8  C   LIG    1       -1.841  -6.209   2.825  0.00  0.00    +0.040 C 
ENDBRANCH   5   6
ENDBRANCH   3   5
ENDBRANCH   1   3
BRANCH   1   9
ATOM      9  C   LIG    1       -3.055  -1.771  -1.340  0.00  0.00    +0.240 C 
ATOM     10  C   LIG    1       -4.465  -2.263  -1.670  0.00  0.00    +0.080 C 
ENDBRANCH   1   9
BRANCH   1  11
ATOM     11  C   LIG    1       -1.386  -1.639   0.379  0.00  0.00    +0.240 C 
BRANCH  11  12
ATOM     12  C   LIG    1       -1.541  -0.121   0.502  0.00  0.00    +0.030 C 
BRANCH  12  14
ATOM     13  C   LIG    1       -0.353   2.015   1.019  0.00  0.00    +0.030 C 
ATOM     14  C   LIG    1       -0.199   0.498   0.895  0.00  0.00    +0.020 C 
ENDBRANCH  12  14
ENDBRANCH  11  12
ENDBRANCH   1  11
TORSDOF 7
ENDMDL
MODEL      397
REMARK  Name = ZINC000379388073
REMARK                            x       y       z     vdW  Elec       q    Type
REMARK                         _______ _______ _______ _____ _____    ______ ____
ROOT
ATOM      1  N   LIG    1       -2.541  -2.616  -0.050  0.00  0.00    -0.380 N 
ATOM      2  H   LIG    1       -2.659  -2.282   0.895  0.00  0.00    +0.420 HD
ENDROOT
BRANCH   1   3
ATOM      3  C   LIG    1       -2.793  -4.062  -0.093  0.00  0.00    +0.150 C 
ATOM      4  C   LIG    1       -2.371  -4.694   1.235  0.00  0.00    +0.090 C 
BRANCH   3   5
ATOM      5  C   LIG    1       -1.987  -4.686  -1.234  0.00  0.00    +0.050 C 
BRANCH   5   6
ATOM      6  C   LIG    1       -2.522  -4.177  -2.574  0.00  0.00    -0.040 C 
ATOM      7  C   LIG    1       -3.975  -4.623  -2.746  0.00  0.00    +0.020 C 
ATOM      8  C   LIG    1       -1.675  -4.751  -3.712  0.00  0.00    +0.050 C 
ENDBRANCH   5   6
ENDBRANCH   3   5
ENDBRANCH   1   3
BRANCH   1   9
ATOM      9  C   LIG    1       -3.490  -1.926  -0.934  0.00  0.00    +0.240 C 
ATOM     10  C   LIG    1       -4.907  -2.076  -0.377  0.00  0.00    +0.080 C 
ENDBRANCH   1   9
BRANCH   1  11
ATOM     11  C   LIG    1       -1.168  -2.344  -0.497  0.00  0.00    +0.240 C 
BRANCH  11  12
ATOM     12  C   LIG    1       -0.850  -0.861  -0.297  0.00  0.00    +0.030 C 
BRANCH  12  14
ATOM     13  C   LIG    1        0.897   0.904  -0.562  0.00  0.00    +0.030 C 
ATOM     14  C   LIG    1        0.579  -0.579  -0.763  0.00  0.00    +0.020 C 
ENDBRANCH  12  14
ENDBRANCH  11  12
ENDBRANCH   1  11
TORSDOF 7
ENDMDL
MODEL      398
REMARK  Name = ZINC001249929209
REMARK                            x       y       z     vdW  Elec       q    Type
REMARK                         _______ _______ _______ _____ _____    ______ ____
ROOT
ATOM      1  C   LIG    1       -2.993  -2.002  -0.132  0.00  0.00    -0.090 A 
ATOM      2  C   LIG    1       -3.782  -2.142   0.999  0.00  0.00    +0.190 A 
ATOM      3  C   LIG    1       -5.136  -2.389   0.833  0.00  0.00    +0.060 A 
ATOM      4  C   LIG    1       -5.650  -2.487  -0.446  0.00  0.00    +0.160 A 
ATOM      5  N   LIG    1       -4.869  -2.349  -1.500  0.00  0.00    -0.450 N 
ATOM      6  H   LIG    1       -5.255  -2.422  -2.387  0.00  0.00    +0.440 HD
ATOM      7  C   LIG    1       -7.121  -2.756  -0.639  0.00  0.00    +0.200 C 
ATOM      8  C   LIG    1       -3.579  -2.108  -1.379  0.00  0.00    +0.160 A 
ATOM      9  C   LIG    1       -2.730  -1.958  -2.616  0.00  0.00    +0.190 C 
ENDROOT
BRANCH   1  10
ATOM     10  C   LIG    1       -1.516  -1.732  -0.003  0.00  0.00    +0.110 C 
BRANCH  10  11
ATOM     11  C   LIG    1       -1.248  -0.242  -0.229  0.00  0.00    -0.020 C 
BRANCH  11  13
ATOM     12  C   LIG    1       -1.745   2.063   0.597  0.00  0.00    +0.010 C 
ATOM     13  C   LIG    1       -1.906   0.569   0.889  0.00  0.00    +0.000 C 
ENDBRANCH  11  13
BRANCH  11  14
ATOM     14  C   LIG    1        0.261   0.011  -0.224  0.00  0.00    +0.020 C 
ATOM     15  C   LIG    1        0.900  -0.688  -1.426  0.00  0.00    +0.000 C 
ENDBRANCH  11  14
ENDBRANCH  10  11
ENDBRANCH   1  10
TORSDOF 4
ENDMDL
MODEL      399
REMARK  Name = ZINC001249930492
REMARK                            x       y       z     vdW  Elec       q    Type
REMARK                         _______ _______ _______ _____ _____    ______ ____
ROOT
ATOM      1  C   LIG    1        1.801  -2.054  -2.870  0.00  0.00    -0.090 A 
ATOM      2  C   LIG    1        1.168  -2.220  -4.087  0.00  0.00    +0.340 A 
ATOM      3  N   LIG    1        1.865  -2.446  -5.184  0.00  0.00    -0.450 N 
ATOM      4  C   LIG    1        3.181  -2.522  -5.167  0.00  0.00    +0.160 A 
ATOM      5  C   LIG    1        3.882  -2.365  -3.986  0.00  0.00    +0.050 A 
ATOM      6  C   LIG    1        3.929  -2.781  -6.449  0.00  0.00    +0.190 C 
ATOM      7  H   LIG    1        1.396  -2.559  -6.026  0.00  0.00    +0.450 HD
ATOM      8  C   LIG    1        3.185  -2.122  -2.813  0.00  0.00    +0.050 A 
ATOM      9  C   LIG    1        3.913  -1.946  -1.505  0.00  0.00    +0.160 C 
ENDROOT
BRANCH   1  10
ATOM     10  C   LIG    1        0.998  -1.796  -1.621  0.00  0.00    +0.100 C 
BRANCH  10  11
ATOM     11  C   LIG    1        1.029  -0.301  -1.295  0.00  0.00    -0.010 C 
BRANCH  11  13
ATOM     12  C   LIG    1        0.457   1.979  -2.141  0.00  0.00    +0.010 C 
ATOM     13  C   LIG    1        0.318   0.478  -2.403  0.00  0.00    +0.000 C 
ENDBRANCH  11  13
BRANCH  11  14
ATOM     14  C   LIG    1        0.319  -0.055   0.038  0.00  0.00    +0.030 C 
ATOM     15  C   LIG    1        1.106  -0.725   1.166  0.00  0.00    +0.010 C 
ENDBRANCH  11  14
ENDBRANCH  10  11
ENDBRANCH   1  10
TORSDOF 4
ENDMDL
MODEL      400
REMARK  Name = ZINC001249928934
REMARK                            x       y       z     vdW  Elec       q    Type
REMARK                         _______ _______ _______ _____ _____    ______ ____
ROOT
ATOM      1  C   LIG    1        1.453  -2.217   2.889  0.00  0.00    +0.060 A 
ATOM      2  C   LIG    1        2.825  -2.281   3.078  0.00  0.00    +0.040 A 
ATOM      3  C   LIG    1        3.320  -2.556   4.338  0.00  0.00    +0.170 A 
ATOM      4  N   LIG    1        2.503  -2.756   5.354  0.00  0.00    -0.460 N 
ATOM      5  C   LIG    1        1.193  -2.703   5.212  0.00  0.00    +0.170 A 
ATOM      6  C   LIG    1        0.305  -2.939   6.406  0.00  0.00    +0.190 C 
ATOM      7  H   LIG    1        2.876  -2.947   6.229  0.00  0.00    +0.440 HD
ATOM      8  C   LIG    1        4.809  -2.628   4.554  0.00  0.00    +0.190 C 
ATOM      9  C   LIG    1        0.626  -2.428   3.982  0.00  0.00    +0.040 A 
ENDROOT
BRANCH   1  10
ATOM     10  C   LIG    1        0.874  -1.920   1.530  0.00  0.00    +0.100 C 
BRANCH  10  11
ATOM     11  C   LIG    1        0.574  -0.424   1.419  0.00  0.00    +0.000 C 
BRANCH  11  13
ATOM     12  C   LIG    1        1.577   1.863   1.495  0.00  0.00    +0.010 C 
ATOM     13  C   LIG    1        1.884   0.364   1.480  0.00  0.00    -0.010 C 
ENDBRANCH  11  13
BRANCH  11  14
ATOM     14  C   LIG    1       -0.130  -0.141   0.091  0.00  0.00    +0.030 C 
ATOM     15  C   LIG    1       -1.501  -0.820   0.086  0.00  0.00    +0.010 C 
ENDBRANCH  11  14
ENDBRANCH  10  11
ENDBRANCH   1  10
TORSDOF 4
ENDMDL
MODEL      401
REMARK  Name = ZINC000379394825
REMARK                            x       y       z     vdW  Elec       q    Type
REMARK                         _______ _______ _______ _____ _____    ______ ____
ROOT
ATOM      1  N   LIG    1        2.288  -0.217   1.160  0.00  0.00    -0.380 N 
ATOM      2  C   LIG    1        2.405   1.240   1.308  0.00  0.00    +0.310 C 
ATOM      3  H   LIG    1        2.842  -0.521   0.373  0.00  0.00    +0.420 HD
ENDROOT
BRANCH   1   4
ATOM      4  C   LIG    1        0.881  -0.576   0.936  0.00  0.00    +0.160 C 
ATOM      5  C   LIG    1        0.059  -0.216   2.175  0.00  0.00    +0.080 C 
BRANCH   4   7
ATOM      6  C   LIG    1        1.516  -2.424  -0.621  0.00  0.00    +0.030 C 
ATOM      7  C   LIG    1        0.774  -2.079   0.672  0.00  0.00    +0.050 C 
ENDBRANCH   4   7
ENDBRANCH   1   4
BRANCH   1   8
ATOM      8  C   LIG    1        2.772  -0.874   2.382  0.00  0.00    +0.240 C 
BRANCH   8   9
ATOM      9  C   LIG    1        4.265  -0.589   2.557  0.00  0.00    +0.030 C 
BRANCH   9  10
ATOM     10  C   LIG    1        4.769  -1.273   3.830  0.00  0.00    +0.030 C 
BRANCH  10  11
ATOM     11  C   LIG    1        6.261  -0.987   4.005  0.00  0.00    -0.070 C 
ATOM     12  C   LIG    1        7.030  -1.527   2.797  0.00  0.00    +0.020 C 
ATOM     13  C   LIG    1        6.766  -1.671   5.278  0.00  0.00    +0.030 C 
ATOM     14  C   LIG    1        6.482   0.523   4.117  0.00  0.00    +0.020 C 
ENDBRANCH  10  11
ENDBRANCH   9  10
ENDBRANCH   8   9
ENDBRANCH   1   8
TORSDOF 6
ENDMDL
MODEL      402
REMARK  Name = ZINC000379394826
REMARK                            x       y       z     vdW  Elec       q    Type
REMARK                         _______ _______ _______ _____ _____    ______ ____
ROOT
ATOM      1  N   LIG    1        0.082  -0.027   2.330  0.00  0.00    -0.380 N 
ATOM      2  C   LIG    1        0.835  -0.327   3.555  0.00  0.00    +0.310 C 
ATOM      3  H   LIG    1       -0.809  -0.500   2.358  0.00  0.00    +0.420 HD
ENDROOT
BRANCH   1   4
ATOM      4  C   LIG    1        0.844  -0.489   1.162  0.00  0.00    +0.160 C 
ATOM      5  C   LIG    1        2.245   0.126   1.191  0.00  0.00    +0.080 C 
BRANCH   4   7
ATOM      6  C   LIG    1       -0.434  -2.632   1.040  0.00  0.00    +0.020 C 
ATOM      7  C   LIG    1        0.957  -2.014   1.197  0.00  0.00    +0.050 C 
ENDBRANCH   4   7
ENDBRANCH   1   4
BRANCH   1   8
ATOM      8  C   LIG    1       -0.136   1.422   2.230  0.00  0.00    +0.250 C 
BRANCH   8   9
ATOM      9  C   LIG    1       -1.055   1.879   3.365  0.00  0.00    +0.030 C 
BRANCH   9  10
ATOM     10  C   LIG    1       -1.281   3.389   3.262  0.00  0.00    +0.030 C 
BRANCH  10  11
ATOM     11  C   LIG    1       -2.200   3.845   4.396  0.00  0.00    -0.070 C 
ATOM     12  C   LIG    1       -3.543   3.119   4.289  0.00  0.00    +0.020 C 
ATOM     13  C   LIG    1       -2.427   5.355   4.293  0.00  0.00    +0.030 C 
ATOM     14  C   LIG    1       -1.550   3.518   5.742  0.00  0.00    +0.020 C 
ENDBRANCH  10  11
ENDBRANCH   9  10
ENDBRANCH   8   9
ENDBRANCH   1   8
TORSDOF 6
ENDMDL
MODEL      403
REMARK  Name = ZINC000059512051
REMARK                            x       y       z     vdW  Elec       q    Type
REMARK                         _______ _______ _______ _____ _____    ______ ____
ROOT
ATOM      1  N   LIG    1        1.153  -5.031  -2.362  0.00  0.00    -0.380 N 
ATOM      2  H   LIG    1        0.319  -5.430  -1.957  0.00  0.00    +0.420 HD
ENDROOT
BRANCH   1   3
ATOM      3  C   LIG    1        2.001  -4.483  -1.296  0.00  0.00    +0.160 C 
ATOM      4  C   LIG    1        1.164  -3.573  -0.395  0.00  0.00    +0.090 C 
ATOM      5  C   LIG    1        3.142  -3.674  -1.917  0.00  0.00    +0.090 C 
ENDBRANCH   1   3
BRANCH   1   6
ATOM      6  C   LIG    1        0.778  -3.956  -3.292  0.00  0.00    +0.240 C 
BRANCH   6   7
ATOM      7  C   LIG    1       -0.340  -3.115  -2.674  0.00  0.00    +0.020 C 
BRANCH   7   8
ATOM      8  C   LIG    1       -0.881  -2.138  -3.721  0.00  0.00    +0.020 C 
BRANCH   8  10
ATOM      9  C   LIG    1       -2.540  -0.320  -4.150  0.00  0.00    +0.020 C 
ATOM     10  C   LIG    1       -2.000  -1.297  -3.104  0.00  0.00    +0.010 C 
ENDBRANCH   8  10
ENDBRANCH   7   8
ENDBRANCH   6   7
ENDBRANCH   1   6
BRANCH   1  11
ATOM     11  C   LIG    1        1.891  -6.072  -3.090  0.00  0.00    +0.240 C 
BRANCH  11  12
ATOM     12  C   LIG    1        2.201  -7.233  -2.143  0.00  0.00    +0.030 C 
BRANCH  12  13
ATOM     13  C   LIG    1        3.016  -8.293  -2.886  0.00  0.00    +0.020 C 
ATOM     14  C   LIG    1        3.326  -9.454  -1.939  0.00  0.00    +0.030 C 
ENDBRANCH  12  13
ENDBRANCH  11  12
ENDBRANCH   1  11
TORSDOF 8
ENDMDL
MODEL      404
REMARK  Name = ZINC000200363046
REMARK                            x       y       z     vdW  Elec       q    Type
REMARK                         _______ _______ _______ _____ _____    ______ ____
ROOT
ATOM      1  N   LIG    1       -2.659  -2.419   0.713  0.00  0.00    -0.390 N 
ATOM      2  C   LIG    1       -3.223  -1.660  -0.424  0.00  0.00    +0.250 C 
ATOM      3  C   LIG    1       -3.029  -2.584  -1.652  0.00  0.00    +0.080 C 
ATOM      4  C   LIG    1       -3.291  -3.983  -1.035  0.00  0.00    +0.070 C 
ATOM      5  C   LIG    1       -2.696  -3.855   0.380  0.00  0.00    +0.160 C 
ATOM      6  H   LIG    1       -3.208  -2.248   1.542  0.00  0.00    +0.420 HD
ENDROOT
BRANCH   1   7
ATOM      7  C   LIG    1       -1.270  -2.002   0.945  0.00  0.00    +0.250 C 
BRANCH   7   8
ATOM      8  C   LIG    1       -1.246  -0.547   1.419  0.00  0.00    +0.040 C 
BRANCH   8  10
ATOM      9  C   LIG    1        0.233   1.376   2.013  0.00  0.00    +0.040 C 
ATOM     10  C   LIG    1        0.200  -0.112   1.661  0.00  0.00    -0.010 C 
ATOM     11  C   LIG    1        0.790  -0.923   2.816  0.00  0.00    +0.020 C 
ENDBRANCH   8  10
ENDBRANCH   7   8
ENDBRANCH   1   7
BRANCH   5  12
ATOM     12  C   LIG    1       -3.578  -4.599   1.385  0.00  0.00    +0.040 C 
BRANCH  12  13
ATOM     13  C   LIG    1       -3.543  -6.098   1.082  0.00  0.00    -0.010 C 
ATOM     14  C   LIG    1       -4.535  -6.825   1.991  0.00  0.00    +0.040 C 
ATOM     15  C   LIG    1       -2.132  -6.636   1.333  0.00  0.00    +0.020 C 
ENDBRANCH  12  13
ENDBRANCH   5  12
TORSDOF 5
ENDMDL
MODEL      405
REMARK  Name = ZINC000200363077
REMARK                            x       y       z     vdW  Elec       q    Type
REMARK                         _______ _______ _______ _____ _____    ______ ____
ROOT
ATOM      1  N   LIG    1       -2.386  -2.416  -0.201  0.00  0.00    -0.390 N 
ATOM      2  C   LIG    1       -2.917  -1.701  -1.380  0.00  0.00    +0.250 C 
ATOM      3  C   LIG    1       -3.927  -2.687  -2.019  0.00  0.00    +0.070 C 
ATOM      4  C   LIG    1       -3.220  -4.050  -1.794  0.00  0.00    +0.080 C 
ATOM      5  C   LIG    1       -2.539  -3.866  -0.425  0.00  0.00    +0.160 C 
ATOM      6  H   LIG    1       -2.902  -2.144   0.623  0.00  0.00    +0.420 HD
ENDROOT
BRANCH   1   7
ATOM      7  C   LIG    1       -0.964  -2.091  -0.024  0.00  0.00    +0.240 C 
BRANCH   7   8
ATOM      8  C   LIG    1       -0.818  -0.603   0.300  0.00  0.00    +0.040 C 
BRANCH   8  10
ATOM      9  C   LIG    1        0.820   1.245   0.683  0.00  0.00    +0.040 C 
ATOM     10  C   LIG    1        0.663  -0.264   0.484  0.00  0.00    -0.010 C 
ATOM     11  C   LIG    1        1.206  -1.000   1.710  0.00  0.00    +0.020 C 
ENDBRANCH   8  10
ENDBRANCH   7   8
ENDBRANCH   1   7
BRANCH   5  12
ATOM     12  C   LIG    1       -1.167  -4.543  -0.431  0.00  0.00    +0.040 C 
BRANCH  12  13
ATOM     13  C   LIG    1       -1.347  -6.059  -0.535  0.00  0.00    -0.010 C 
ATOM     14  C   LIG    1        0.005  -6.748  -0.342  0.00  0.00    +0.040 C 
ATOM     15  C   LIG    1       -1.908  -6.412  -1.915  0.00  0.00    +0.030 C 
ENDBRANCH  12  13
ENDBRANCH   5  12
TORSDOF 5
ENDMDL
MODEL      406
REMARK  Name = ZINC001174949516
REMARK                            x       y       z     vdW  Elec       q    Type
REMARK                         _______ _______ _______ _____ _____    ______ ____
ROOT
ATOM      1  C   LIG    1        1.581  -4.247   2.402  0.00  0.00    +0.250 C 
ENDROOT
BRANCH   1   2
ATOM      2  N   LIG    1        2.155  -4.780   3.645  0.00  0.00    -0.380 N 
ATOM      3  C   LIG    1        1.225  -4.540   4.756  0.00  0.00    +0.310 C 
ATOM      4  H   LIG    1        3.032  -4.320   3.834  0.00  0.00    +0.420 HD
BRANCH   2   5
ATOM      5  C   LIG    1        2.381  -6.225   3.499  0.00  0.00    +0.290 C 
BRANCH   5   6
ATOM      6  C   LIG    1        3.093  -6.757   4.744  0.00  0.00    -0.090 C 
ATOM      7  C   LIG    1        2.344  -7.779   5.603  0.00  0.00    +0.050 C 
ATOM      8  C   LIG    1        3.524  -8.225   4.738  0.00  0.00    +0.070 C 
ENDBRANCH   5   6
ENDBRANCH   2   5
ENDBRANCH   1   2
BRANCH   1   9
ATOM      9  C   LIG    1        1.461  -2.725   2.508  0.00  0.00    +0.030 C 
BRANCH   9  10
ATOM     10  C   LIG    1        0.863  -2.170   1.214  0.00  0.00    +0.030 C 
BRANCH  10  11
ATOM     11  C   LIG    1        0.640  -0.663   1.360  0.00  0.00    -0.020 C 
BRANCH  11  13
ATOM     12  C   LIG    1        1.762   1.528   1.787  0.00  0.00    +0.010 C 
ATOM     13  C   LIG    1        1.990   0.039   1.516  0.00  0.00    +0.000 C 
ENDBRANCH  11  13
BRANCH  11  14
ATOM     14  C   LIG    1       -0.073  -0.130   0.116  0.00  0.00    +0.000 C 
ATOM     15  C   LIG    1       -1.483  -0.719   0.044  0.00  0.00    +0.000 C 
ENDBRANCH  11  14
ENDBRANCH  10  11
ENDBRANCH   9  10
ENDBRANCH   1   9
TORSDOF 8
ENDMDL
MODEL      407
REMARK  Name = ZINC000308384739
REMARK                            x       y       z     vdW  Elec       q    Type
REMARK                         _______ _______ _______ _____ _____    ______ ____
ROOT
ATOM      1  C   LIG    1        1.354  -2.289  -2.344  0.00  0.00    +0.160 C 
ATOM      2  C   LIG    1        2.742  -1.722  -2.036  0.00  0.00    +0.080 C 
ENDROOT
BRANCH   1   3
ATOM      3  N   LIG    1        0.439  -1.970  -1.240  0.00  0.00    -0.380 N 
ATOM      4  C   LIG    1        0.236  -0.517  -1.176  0.00  0.00    +0.310 C 
ATOM      5  H   LIG    1       -0.447  -2.428  -1.395  0.00  0.00    +0.420 HD
BRANCH   3   6
ATOM      6  C   LIG    1        1.017  -2.440   0.026  0.00  0.00    +0.240 C 
BRANCH   6   8
ATOM      7  C   LIG    1        0.613  -2.711   2.477  0.00  0.00    +0.060 C 
ATOM      8  C   LIG    1        0.011  -2.221   1.158  0.00  0.00    +0.020 C 
ENDBRANCH   6   8
ENDBRANCH   3   6
ENDBRANCH   1   3
BRANCH   1   9
ATOM      9  C   LIG    1        1.448  -3.808  -2.506  0.00  0.00    +0.050 C 
BRANCH   9  10
ATOM     10  C   LIG    1        0.088  -4.359  -2.940  0.00  0.00    -0.000 C 
BRANCH  10  11
ATOM     11  C   LIG    1        0.214  -5.857  -3.227  0.00  0.00    +0.020 C 
BRANCH  11  12
ATOM     12  C   LIG    1       -1.146  -6.408  -3.660  0.00  0.00    -0.030 C 
ATOM     13  C   LIG    1       -1.051  -7.926  -3.827  0.00  0.00    +0.030 C 
ATOM     14  C   LIG    1       -1.553  -5.774  -4.991  0.00  0.00    +0.020 C 
ENDBRANCH  11  12
ENDBRANCH  10  11
ENDBRANCH   9  10
ENDBRANCH   1   9
TORSDOF 7
ENDMDL
MODEL      408
REMARK  Name = ZINC000308384736
REMARK                            x       y       z     vdW  Elec       q    Type
REMARK                         _______ _______ _______ _____ _____    ______ ____
ROOT
ATOM      1  C   LIG    1        1.589  -2.541  -2.499  0.00  0.00    +0.160 C 
ATOM      2  C   LIG    1        1.516  -4.069  -2.535  0.00  0.00    +0.080 C 
ENDROOT
BRANCH   1   3
ATOM      3  N   LIG    1        0.663  -2.031  -1.478  0.00  0.00    -0.380 N 
ATOM      4  C   LIG    1        0.951  -2.675  -0.190  0.00  0.00    +0.320 C 
ATOM      5  H   LIG    1        0.777  -1.033  -1.389  0.00  0.00    +0.420 HD
BRANCH   3   6
ATOM      6  C   LIG    1       -0.719  -2.332  -1.877  0.00  0.00    +0.250 C 
BRANCH   6   8
ATOM      7  C   LIG    1       -3.126  -2.020  -1.287  0.00  0.00    +0.060 C 
ATOM      8  C   LIG    1       -1.687  -1.707  -0.871  0.00  0.00    +0.020 C 
ENDBRANCH   6   8
ENDBRANCH   3   6
ENDBRANCH   1   3
BRANCH   1   9
ATOM      9  C   LIG    1        3.015  -2.106  -2.156  0.00  0.00    +0.050 C 
BRANCH   9  10
ATOM     10  C   LIG    1        3.106  -0.579  -2.197  0.00  0.00    -0.000 C 
BRANCH  10  11
ATOM     11  C   LIG    1        4.540  -0.146  -1.886  0.00  0.00    +0.020 C 
BRANCH  11  12
ATOM     12  C   LIG    1        4.632   1.381  -1.927  0.00  0.00    -0.030 C 
ATOM     13  C   LIG    1        6.088   1.810  -1.740  0.00  0.00    +0.030 C 
ATOM     14  C   LIG    1        3.777   1.973  -0.804  0.00  0.00    +0.020 C 
ENDBRANCH  11  12
ENDBRANCH  10  11
ENDBRANCH   9  10
ENDBRANCH   1   9
TORSDOF 7
ENDMDL
MODEL      409
REMARK  Name = ZINC000208394712
REMARK                            x       y       z     vdW  Elec       q    Type
REMARK                         _______ _______ _______ _____ _____    ______ ____
ROOT
ATOM      1  N   LIG    1        0.053   0.031   2.397  0.00  0.00    -0.380 N 
ATOM      2  C   LIG    1        0.972  -0.421   3.450  0.00  0.00    +0.310 C 
ATOM      3  H   LIG    1       -0.893  -0.213   2.649  0.00  0.00    +0.420 HD
ENDROOT
BRANCH   1   4
ATOM      4  C   LIG    1        0.404  -0.620   1.128  0.00  0.00    +0.160 C 
ATOM      5  C   LIG    1        1.875  -0.350   0.806  0.00  0.00    +0.080 C 
BRANCH   4   7
ATOM      6  C   LIG    1       -1.305  -2.401   1.514  0.00  0.00    +0.040 C 
ATOM      7  C   LIG    1        0.177  -2.128   1.248  0.00  0.00    -0.020 C 
ATOM      8  C   LIG    1        0.596  -2.813  -0.054  0.00  0.00    +0.070 C 
ENDBRANCH   4   7
ENDBRANCH   1   4
BRANCH   1   9
ATOM      9  C   LIG    1        0.160   1.488   2.246  0.00  0.00    +0.250 C 
BRANCH   9  10
ATOM     10  C   LIG    1       -0.872   1.972   1.225  0.00  0.00    -0.020 C 
ATOM     11  C   LIG    1       -2.281   1.732   1.771  0.00  0.00    +0.000 C 
ATOM     12  C   LIG    1       -3.313   2.216   0.750  0.00  0.00    +0.020 C 
ATOM     13  C   LIG    1       -3.113   3.711   0.493  0.00  0.00    +0.010 C 
ATOM     14  C   LIG    1       -1.704   3.951  -0.052  0.00  0.00    +0.020 C 
ATOM     15  C   LIG    1       -0.672   3.467   0.968  0.00  0.00    +0.030 C 
ENDBRANCH   9  10
ENDBRANCH   1   9
TORSDOF 4
ENDMDL
MODEL      410
REMARK  Name = ZINC001175757656
REMARK                            x       y       z     vdW  Elec       q    Type
REMARK                         _______ _______ _______ _____ _____    ______ ____
ROOT
ATOM      1  N   LIG    1       -2.834  -4.051  -0.239  0.00  0.00    -0.390 N 
ATOM      2  C   LIG    1       -2.219  -4.649   0.965  0.00  0.00    +0.260 C 
ATOM      3  C   LIG    1       -3.414  -5.018   1.878  0.00  0.00    -0.010 C 
ATOM      4  C   LIG    1       -4.468  -5.489   0.841  0.00  0.00    +0.080 C 
ATOM      5  C   LIG    1       -3.043  -6.151   2.837  0.00  0.00    +0.070 C 
ATOM      6  C   LIG    1       -4.215  -4.554  -0.357  0.00  0.00    +0.050 C 
ATOM      7  C   LIG    1       -4.371  -5.332  -1.665  0.00  0.00    +0.100 C 
ATOM      8  C   LIG    1       -5.200  -3.385  -0.322  0.00  0.00    +0.090 C 
ATOM      9  H   LIG    1       -2.305  -4.314  -1.057  0.00  0.00    +0.420 HD
ENDROOT
BRANCH   1  10
ATOM     10  C   LIG    1       -2.851  -2.587  -0.110  0.00  0.00    +0.240 C 
BRANCH  10  11
ATOM     11  C   LIG    1       -1.416  -2.058  -0.121  0.00  0.00    +0.030 C 
BRANCH  11  12
ATOM     12  C   LIG    1       -1.433  -0.534   0.013  0.00  0.00    +0.030 C 
BRANCH  12  14
ATOM     13  C   LIG    1       -0.019   1.526   0.010  0.00  0.00    +0.030 C 
ATOM     14  C   LIG    1        0.002  -0.004   0.002  0.00  0.00    -0.030 C 
ATOM     15  C   LIG    1        0.742  -0.511   1.242  0.00  0.00    +0.020 C 
ENDBRANCH  12  14
ENDBRANCH  11  12
ENDBRANCH  10  11
ENDBRANCH   1  10
TORSDOF 4
ENDMDL
MODEL      411
REMARK  Name = ZINC001175757661
REMARK                            x       y       z     vdW  Elec       q    Type
REMARK                         _______ _______ _______ _____ _____    ______ ____
ROOT
ATOM      1  N   LIG    1       -2.834  -4.051  -0.239  0.00  0.00    -0.390 N 
ATOM      2  C   LIG    1       -2.219  -4.649   0.965  0.00  0.00    +0.250 C 
ATOM      3  C   LIG    1       -3.013  -5.957   1.206  0.00  0.00    +0.000 C 
ATOM      4  C   LIG    1       -4.451  -5.528   0.813  0.00  0.00    +0.080 C 
ATOM      5  C   LIG    1       -2.947  -6.374   2.677  0.00  0.00    +0.070 C 
ATOM      6  C   LIG    1       -4.215  -4.554  -0.357  0.00  0.00    +0.050 C 
ATOM      7  C   LIG    1       -4.384  -5.289  -1.688  0.00  0.00    +0.100 C 
ATOM      8  C   LIG    1       -5.203  -3.389  -0.273  0.00  0.00    +0.090 C 
ATOM      9  H   LIG    1       -2.305  -4.314  -1.057  0.00  0.00    +0.420 HD
ENDROOT
BRANCH   1  10
ATOM     10  C   LIG    1       -2.851  -2.587  -0.110  0.00  0.00    +0.250 C 
BRANCH  10  11
ATOM     11  C   LIG    1       -1.416  -2.058  -0.121  0.00  0.00    +0.020 C 
BRANCH  11  12
ATOM     12  C   LIG    1       -1.433  -0.534   0.013  0.00  0.00    +0.030 C 
BRANCH  12  14
ATOM     13  C   LIG    1       -0.019   1.526   0.010  0.00  0.00    +0.030 C 
ATOM     14  C   LIG    1        0.002  -0.004   0.002  0.00  0.00    -0.030 C 
ATOM     15  C   LIG    1        0.742  -0.511   1.242  0.00  0.00    +0.020 C 
ENDBRANCH  12  14
ENDBRANCH  11  12
ENDBRANCH  10  11
ENDBRANCH   1  10
TORSDOF 4
ENDMDL
MODEL      412
REMARK  Name = ZINC000102852382
REMARK                            x       y       z     vdW  Elec       q    Type
REMARK                         _______ _______ _______ _____ _____    ______ ____
ROOT
ATOM      1  N   LIG    1        0.062  -0.083   2.390  0.00  0.00    -0.380 N 
ATOM      2  H   LIG    1       -0.883  -0.372   2.594  0.00  0.00    +0.420 HD
ENDROOT
BRANCH   1   3
ATOM      3  C   LIG    1        0.570  -0.844   1.241  0.00  0.00    +0.160 C 
ATOM      4  C   LIG    1        2.048  -0.512   1.022  0.00  0.00    +0.080 C 
BRANCH   3   6
ATOM      5  C   LIG    1       -1.066  -2.687   1.649  0.00  0.00    +0.030 C 
ATOM      6  C   LIG    1        0.418  -2.341   1.513  0.00  0.00    +0.050 C 
ENDBRANCH   3   6
ENDBRANCH   1   3
BRANCH   1   7
ATOM      7  C   LIG    1        0.914  -0.336   3.560  0.00  0.00    +0.240 C 
ATOM      8  C   LIG    1        0.297   0.325   4.794  0.00  0.00    +0.080 C 
ENDBRANCH   1   7
BRANCH   1   9
ATOM      9  C   LIG    1        0.079   1.351   2.074  0.00  0.00    +0.240 C 
BRANCH   9  10
ATOM     10  C   LIG    1       -0.910   1.635   0.942  0.00  0.00    -0.020 C 
ATOM     11  C   LIG    1       -2.331   1.321   1.414  0.00  0.00    +0.000 C 
ATOM     12  C   LIG    1       -3.319   1.605   0.281  0.00  0.00    +0.020 C 
ATOM     13  C   LIG    1       -3.229   3.079  -0.117  0.00  0.00    +0.010 C 
ATOM     14  C   LIG    1       -1.808   3.394  -0.589  0.00  0.00    +0.020 C 
ATOM     15  C   LIG    1       -0.819   3.110   0.543  0.00  0.00    +0.030 C 
ENDBRANCH   9  10
ENDBRANCH   1   9
TORSDOF 5
ENDMDL
MODEL      413
REMARK  Name = ZINC000102852380
REMARK                            x       y       z     vdW  Elec       q    Type
REMARK                         _______ _______ _______ _____ _____    ______ ____
ROOT
ATOM      1  N   LIG    1        2.437  -0.677   0.983  0.00  0.00    -0.380 N 
ATOM      2  H   LIG    1        2.983  -1.314   0.422  0.00  0.00    +0.420 HD
ENDROOT
BRANCH   1   3
ATOM      3  C   LIG    1        1.041  -1.132   1.021  0.00  0.00    +0.160 C 
ATOM      4  C   LIG    1        0.246  -0.257   1.992  0.00  0.00    +0.080 C 
BRANCH   3   6
ATOM      5  C   LIG    1        1.668  -3.482   0.448  0.00  0.00    +0.030 C 
ATOM      6  C   LIG    1        0.992  -2.588   1.489  0.00  0.00    +0.050 C 
ENDBRANCH   3   6
ENDBRANCH   1   3
BRANCH   1   7
ATOM      7  C   LIG    1        2.498   0.668   0.395  0.00  0.00    +0.240 C 
ATOM      8  C   LIG    1        1.996   0.617  -1.049  0.00  0.00    +0.080 C 
ENDBRANCH   1   7
BRANCH   1   9
ATOM      9  C   LIG    1        2.978  -0.640   2.348  0.00  0.00    +0.240 C 
BRANCH   9  10
ATOM     10  C   LIG    1        4.460  -0.264   2.300  0.00  0.00    -0.020 C 
ATOM     11  C   LIG    1        4.609   1.248   2.485  0.00  0.00    +0.020 C 
ATOM     12  C   LIG    1        6.091   1.624   2.437  0.00  0.00    +0.020 C 
ATOM     13  C   LIG    1        6.838   0.898   3.557  0.00  0.00    +0.010 C 
ATOM     14  C   LIG    1        6.689  -0.614   3.372  0.00  0.00    +0.020 C 
ATOM     15  C   LIG    1        5.207  -0.990   3.420  0.00  0.00    +0.040 C 
ENDBRANCH   9  10
ENDBRANCH   1   9
TORSDOF 5
ENDMDL
MODEL      414
REMARK  Name = ZINC001179926519
REMARK                            x       y       z     vdW  Elec       q    Type
REMARK                         _______ _______ _______ _____ _____    ______ ____
ROOT
ATOM      1  N   LIG    1       -5.651  -0.767  -2.563  0.00  0.00    -0.390 N 
ATOM      2  C   LIG    1       -6.408  -0.107  -1.491  0.00  0.00    +0.310 C 
ATOM      3  H   LIG    1       -5.640  -1.763  -2.403  0.00  0.00    +0.420 HD
ENDROOT
BRANCH   1   4
ATOM      4  C   LIG    1       -4.272  -0.258  -2.573  0.00  0.00    +0.250 C 
BRANCH   4   5
ATOM      5  C   LIG    1       -3.571  -0.661  -1.275  0.00  0.00    +0.030 C 
BRANCH   5   6
ATOM      6  C   LIG    1       -2.135  -0.131  -1.286  0.00  0.00    +0.030 C 
BRANCH   6   7
ATOM      7  C   LIG    1       -1.433  -0.534   0.013  0.00  0.00    +0.020 C 
BRANCH   7   9
ATOM      8  C   LIG    1       -0.019   1.526   0.010  0.00  0.00    +0.020 C 
ATOM      9  C   LIG    1        0.002  -0.004   0.002  0.00  0.00    -0.030 C 
ATOM     10  C   LIG    1        0.742  -0.511   1.242  0.00  0.00    +0.030 C 
ENDBRANCH   7   9
ENDBRANCH   6   7
ENDBRANCH   5   6
ENDBRANCH   4   5
ENDBRANCH   1   4
BRANCH   1  11
ATOM     11  C   LIG    1       -6.286  -0.485  -3.857  0.00  0.00    +0.250 C 
BRANCH  11  12
ATOM     12  C   LIG    1       -7.677  -1.123  -3.892  0.00  0.00    +0.060 C 
BRANCH  12  13
ATOM     13  C   LIG    1       -8.339  -0.829  -5.239  0.00  0.00    -0.060 C 
ATOM     14  C   LIG    1       -8.654  -2.021  -6.146  0.00  0.00    +0.030 C 
ATOM     15  C   LIG    1       -9.787  -1.284  -5.429  0.00  0.00    +0.030 C 
ENDBRANCH  12  13
ENDBRANCH  11  12
ENDBRANCH   1  11
TORSDOF 8
ENDMDL
MODEL      415
REMARK  Name = ZINC001180166998
REMARK                            x       y       z     vdW  Elec       q    Type
REMARK                         _______ _______ _______ _____ _____    ______ ____
ROOT
ATOM      1  N   LIG    1       -0.092  -0.235   2.438  0.00  0.00    -0.390 N 
ATOM      2  C   LIG    1        0.508  -0.728   3.685  0.00  0.00    +0.310 C 
ATOM      3  H   LIG    1       -1.006  -0.646   2.320  0.00  0.00    +0.420 HD
ENDROOT
BRANCH   1   4
ATOM      4  C   LIG    1        0.763  -0.607   1.303  0.00  0.00    +0.170 C 
ATOM      5  C   LIG    1        0.955  -2.124   1.284  0.00  0.00    +0.080 C 
BRANCH   4   7
ATOM      6  C   LIG    1        1.003  -0.524  -1.183  0.00  0.00    +0.070 C 
ATOM      7  C   LIG    1        0.100  -0.161  -0.002  0.00  0.00    -0.020 C 
ATOM      8  C   LIG    1       -1.249  -0.865  -0.155  0.00  0.00    +0.040 C 
ENDBRANCH   4   7
ENDBRANCH   1   4
BRANCH   1   9
ATOM      9  C   LIG    1       -0.217   1.227   2.499  0.00  0.00    +0.240 C 
BRANCH   9  10
ATOM     10  C   LIG    1       -1.210   1.609   3.599  0.00  0.00    -0.010 C 
ATOM     11  C   LIG    1       -2.603   1.099   3.228  0.00  0.00    +0.050 C 
BRANCH  10  12
ATOM     12  C   LIG    1       -1.246   3.131   3.748  0.00  0.00    -0.060 C 
ATOM     13  C   LIG    1        0.148   3.641   4.119  0.00  0.00    +0.030 C 
ATOM     14  C   LIG    1       -2.239   3.513   4.847  0.00  0.00    +0.040 C 
ATOM     15  C   LIG    1       -1.683   3.762   2.424  0.00  0.00    +0.030 C 
ENDBRANCH  10  12
ENDBRANCH   9  10
ENDBRANCH   1   9
TORSDOF 5
ENDMDL
MODEL      416
REMARK  Name = ZINC001180275255
REMARK                            x       y       z     vdW  Elec       q    Type
REMARK                         _______ _______ _______ _____ _____    ______ ____
ROOT
ATOM      1  N   LIG    1        1.507  -2.591   0.005  0.00  0.00    -0.380 N 
ATOM      2  C   LIG    1        0.821  -2.035   1.179  0.00  0.00    +0.320 C 
ATOM      3  H   LIG    1        1.204  -3.542  -0.143  0.00  0.00    +0.420 HD
ENDROOT
BRANCH   1   4
ATOM      4  C   LIG    1        2.958  -2.570   0.230  0.00  0.00    +0.160 C 
ATOM      5  C   LIG    1        3.405  -1.139   0.539  0.00  0.00    +0.090 C 
BRANCH   4   6
ATOM      6  C   LIG    1        3.305  -3.479   1.411  0.00  0.00    +0.050 C 
BRANCH   6   8
ATOM      7  C   LIG    1        3.389  -5.848   2.199  0.00  0.00    +0.030 C 
ATOM      8  C   LIG    1        2.934  -4.923   1.068  0.00  0.00    -0.000 C 
ENDBRANCH   6   8
ENDBRANCH   4   6
ENDBRANCH   1   4
BRANCH   1   9
ATOM      9  C   LIG    1        1.183  -1.784  -1.179  0.00  0.00    +0.250 C 
BRANCH   9  10
ATOM     10  C   LIG    1        1.801  -2.430  -2.421  0.00  0.00    -0.020 C 
ATOM     11  C   LIG    1        1.152  -3.794  -2.663  0.00  0.00    +0.040 C 
BRANCH  10  12
ATOM     12  C   LIG    1        1.563  -1.530  -3.635  0.00  0.00    +0.040 C 
BRANCH  12  13
ATOM     13  C   LIG    1        2.310  -2.097  -4.844  0.00  0.00    -0.020 C 
ATOM     14  C   LIG    1        3.817  -2.022  -4.594  0.00  0.00    +0.020 C 
ATOM     15  C   LIG    1        1.958  -1.281  -6.090  0.00  0.00    +0.030 C 
ENDBRANCH  12  13
ENDBRANCH  10  12
ENDBRANCH   9  10
ENDBRANCH   1   9
TORSDOF 7
ENDMDL
MODEL      417
REMARK  Name = ZINC001180178077
REMARK                            x       y       z     vdW  Elec       q    Type
REMARK                         _______ _______ _______ _____ _____    ______ ____
ROOT
ATOM      1  N   LIG    1       -5.465  -1.036  -2.338  0.00  0.00    -0.360 N 
ATOM      2  H   LIG    1       -5.335  -1.905  -1.843  0.00  0.00    +0.420 HD
ENDROOT
BRANCH   1   3
ATOM      3  C   LIG    1       -5.997  -1.310  -3.679  0.00  0.00    +0.090 C 
ATOM      4  C   LIG    1       -5.901  -2.746  -4.197  0.00  0.00    +0.090 C 
ATOM      5  C   LIG    1       -7.256  -2.174  -3.776  0.00  0.00    +0.100 C 
ENDBRANCH   1   3
BRANCH   1   6
ATOM      6  C   LIG    1       -6.410  -0.188  -1.599  0.00  0.00    +0.160 C 
ATOM      7  C   LIG    1       -7.724  -0.945  -1.398  0.00  0.00    +0.080 C 
ATOM      8  C   LIG    1       -6.675   1.093  -2.394  0.00  0.00    +0.080 C 
ENDBRANCH   1   6
BRANCH   1   9
ATOM      9  C   LIG    1       -4.175  -0.343  -2.456  0.00  0.00    +0.250 C 
BRANCH   9  10
ATOM     10  C   LIG    1       -3.590  -0.113  -1.061  0.00  0.00    +0.020 C 
BRANCH  10  11
ATOM     11  C   LIG    1       -2.191   0.494  -1.188  0.00  0.00    +0.030 C 
BRANCH  11  12
ATOM     12  C   LIG    1       -1.606   0.724   0.207  0.00  0.00    +0.020 C 
BRANCH  12  14
ATOM     13  C   LIG    1       -0.309   2.720  -0.550  0.00  0.00    +0.020 C 
ATOM     14  C   LIG    1       -0.207   1.330   0.081  0.00  0.00    -0.030 C 
ATOM     15  C   LIG    1        0.427   1.444   1.468  0.00  0.00    +0.030 C 
ENDBRANCH  12  14
ENDBRANCH  11  12
ENDBRANCH  10  11
ENDBRANCH   9  10
ENDBRANCH   1   9
TORSDOF 7
ENDMDL
MODEL      418
REMARK  Name = ZINC001180275252
REMARK                            x       y       z     vdW  Elec       q    Type
REMARK                         _______ _______ _______ _____ _____    ______ ____
ROOT
ATOM      1  N   LIG    1       -0.667  -2.646   1.503  0.00  0.00    -0.390 N 
ATOM      2  C   LIG    1       -1.445  -2.353   0.292  0.00  0.00    +0.310 C 
ATOM      3  H   LIG    1       -1.202  -2.387   2.318  0.00  0.00    +0.420 HD
ENDROOT
BRANCH   1   4
ATOM      4  C   LIG    1        0.587  -1.880   1.478  0.00  0.00    +0.160 C 
ATOM      5  C   LIG    1        1.448  -2.351   0.304  0.00  0.00    +0.080 C 
BRANCH   4   6
ATOM      6  C   LIG    1        1.345  -2.100   2.788  0.00  0.00    +0.050 C 
BRANCH   6   8
ATOM      7  C   LIG    1        1.281  -1.767   5.263  0.00  0.00    +0.040 C 
ATOM      8  C   LIG    1        0.526  -1.541   3.952  0.00  0.00    -0.010 C 
ENDBRANCH   6   8
ENDBRANCH   4   6
ENDBRANCH   1   4
BRANCH   1   9
ATOM      9  C   LIG    1       -0.362  -4.082   1.554  0.00  0.00    +0.240 C 
BRANCH   9  10
ATOM     10  C   LIG    1       -1.664  -4.875   1.685  0.00  0.00    -0.020 C 
ATOM     11  C   LIG    1       -2.324  -4.554   3.027  0.00  0.00    +0.040 C 
BRANCH  10  12
ATOM     12  C   LIG    1       -1.358  -6.373   1.612  0.00  0.00    +0.030 C 
BRANCH  12  13
ATOM     13  C   LIG    1       -2.669  -7.162   1.618  0.00  0.00    -0.020 C 
ATOM     14  C   LIG    1       -2.363  -8.660   1.671  0.00  0.00    +0.030 C 
ATOM     15  C   LIG    1       -3.459  -6.848   0.346  0.00  0.00    +0.020 C 
ENDBRANCH  12  13
ENDBRANCH  10  12
ENDBRANCH   9  10
ENDBRANCH   1   9
TORSDOF 7
ENDMDL
MODEL      419
REMARK  Name = ZINC001180166996
REMARK                            x       y       z     vdW  Elec       q    Type
REMARK                         _______ _______ _______ _____ _____    ______ ____
ROOT
ATOM      1  N   LIG    1       -0.069   0.151   2.347  0.00  0.00    -0.380 N 
ATOM      2  C   LIG    1        0.534  -0.219   1.059  0.00  0.00    +0.310 C 
ATOM      3  H   LIG    1        0.559  -0.098   3.096  0.00  0.00    +0.420 HD
ENDROOT
BRANCH   1   4
ATOM      4  C   LIG    1       -1.341  -0.566   2.516  0.00  0.00    +0.160 C 
ATOM      5  C   LIG    1       -2.247  -0.285   1.315  0.00  0.00    +0.080 C 
BRANCH   4   7
ATOM      6  C   LIG    1       -0.205  -2.355   3.839  0.00  0.00    +0.040 C 
ATOM      7  C   LIG    1       -1.070  -2.069   2.610  0.00  0.00    -0.020 C 
ATOM      8  C   LIG    1       -2.398  -2.819   2.736  0.00  0.00    +0.070 C 
ENDBRANCH   4   7
ENDBRANCH   1   4
BRANCH   1   9
ATOM      9  C   LIG    1       -0.316   1.599   2.375  0.00  0.00    +0.250 C 
BRANCH   9  10
ATOM     10  C   LIG    1       -0.851   1.999   3.751  0.00  0.00    -0.020 C 
ATOM     11  C   LIG    1        0.229   1.757   4.808  0.00  0.00    +0.050 C 
BRANCH  10  12
ATOM     12  C   LIG    1       -1.230   3.481   3.740  0.00  0.00    -0.060 C 
ATOM     13  C   LIG    1        0.005   4.321   3.409  0.00  0.00    +0.030 C 
ATOM     14  C   LIG    1       -1.764   3.881   5.117  0.00  0.00    +0.040 C 
ATOM     15  C   LIG    1       -2.310   3.723   2.683  0.00  0.00    +0.030 C 
ENDBRANCH  10  12
ENDBRANCH   9  10
ENDBRANCH   1   9
TORSDOF 5
ENDMDL
MODEL      420
REMARK  Name = ZINC001180275195
REMARK                            x       y       z     vdW  Elec       q    Type
REMARK                         _______ _______ _______ _____ _____    ______ ____
ROOT
ATOM      1  N   LIG    1        1.702  -2.605  -0.160  0.00  0.00    -0.380 N 
ATOM      2  C   LIG    1        1.028  -2.311   1.111  0.00  0.00    +0.310 C 
ATOM      3  H   LIG    1        2.670  -2.324  -0.100  0.00  0.00    +0.420 HD
ENDROOT
BRANCH   1   4
ATOM      4  C   LIG    1        1.044  -1.866  -1.246  0.00  0.00    +0.160 C 
ATOM      5  C   LIG    1       -0.391  -2.371  -1.409  0.00  0.00    +0.080 C 
BRANCH   4   6
ATOM      6  C   LIG    1        1.813  -2.084  -2.550  0.00  0.00    +0.050 C 
BRANCH   6   8
ATOM      7  C   LIG    1        3.985  -1.705  -3.725  0.00  0.00    +0.030 C 
ATOM      8  C   LIG    1        3.219  -1.495  -2.418  0.00  0.00    -0.010 C 
ENDBRANCH   6   8
ENDBRANCH   4   6
ENDBRANCH   1   4
BRANCH   1   9
ATOM      9  C   LIG    1        1.627  -4.046  -0.433  0.00  0.00    +0.240 C 
BRANCH   9  10
ATOM     10  C   LIG    1        2.406  -4.810   0.640  0.00  0.00    +0.020 C 
BRANCH  10  11
ATOM     11  C   LIG    1        2.327  -6.311   0.356  0.00  0.00    +0.030 C 
BRANCH  11  12
ATOM     12  C   LIG    1        3.106  -7.075   1.429  0.00  0.00    +0.020 C 
BRANCH  12  13
ATOM     13  C   LIG    1        3.027  -8.576   1.145  0.00  0.00    -0.030 C 
ATOM     14  C   LIG    1        3.699  -9.347   2.284  0.00  0.00    +0.030 C 
ATOM     15  C   LIG    1        3.744  -8.884  -0.171  0.00  0.00    +0.020 C 
ENDBRANCH  12  13
ENDBRANCH  11  12
ENDBRANCH  10  11
ENDBRANCH   9  10
ENDBRANCH   1   9
TORSDOF 8
ENDMDL
MODEL      421
REMARK  Name = ZINC001180275253
REMARK                            x       y       z     vdW  Elec       q    Type
REMARK                         _______ _______ _______ _____ _____    ______ ____
ROOT
ATOM      1  N   LIG    1        1.387  -2.428   0.087  0.00  0.00    -0.380 N 
ATOM      2  C   LIG    1        1.290  -3.885  -0.077  0.00  0.00    +0.310 C 
ATOM      3  H   LIG    1        2.356  -2.164   0.184  0.00  0.00    +0.420 HD
ENDROOT
BRANCH   1   4
ATOM      4  C   LIG    1        0.645  -2.020   1.287  0.00  0.00    +0.160 C 
ATOM      5  C   LIG    1       -0.792  -2.536   1.199  0.00  0.00    +0.080 C 
BRANCH   4   6
ATOM      6  C   LIG    1        1.322  -2.605   2.528  0.00  0.00    +0.050 C 
BRANCH   6   8
ATOM      7  C   LIG    1        3.340  -2.481   3.995  0.00  0.00    +0.030 C 
ATOM      8  C   LIG    1        2.714  -1.992   2.687  0.00  0.00    -0.000 C 
ENDBRANCH   6   8
ENDBRANCH   4   6
ENDBRANCH   1   4
BRANCH   1   9
ATOM      9  C   LIG    1        0.815  -1.763  -1.092  0.00  0.00    +0.250 C 
BRANCH   9  10
ATOM     10  C   LIG    1        1.677  -2.068  -2.318  0.00  0.00    -0.020 C 
ATOM     11  C   LIG    1        3.063  -1.446  -2.135  0.00  0.00    +0.040 C 
BRANCH  10  12
ATOM     12  C   LIG    1        1.015  -1.481  -3.566  0.00  0.00    +0.040 C 
BRANCH  12  13
ATOM     13  C   LIG    1        1.811  -1.892  -4.807  0.00  0.00    -0.020 C 
ATOM     14  C   LIG    1        1.223  -1.204  -6.040  0.00  0.00    +0.030 C 
ATOM     15  C   LIG    1        1.733  -3.410  -4.983  0.00  0.00    +0.020 C 
ENDBRANCH  12  13
ENDBRANCH  10  12
ENDBRANCH   9  10
ENDBRANCH   1   9
TORSDOF 7
ENDMDL
MODEL      422
REMARK  Name = ZINC001180275254
REMARK                            x       y       z     vdW  Elec       q    Type
REMARK                         _______ _______ _______ _____ _____    ______ ____
ROOT
ATOM      1  N   LIG    1       -0.735  -2.650   1.180  0.00  0.00    -0.390 N 
ATOM      2  C   LIG    1       -1.469  -2.445  -0.075  0.00  0.00    +0.300 C 
ATOM      3  H   LIG    1       -1.257  -2.249   1.945  0.00  0.00    +0.420 HD
ENDROOT
BRANCH   1   4
ATOM      4  C   LIG    1        0.579  -1.999   1.090  0.00  0.00    +0.160 C 
ATOM      5  C   LIG    1        1.431  -2.713   0.039  0.00  0.00    +0.080 C 
BRANCH   4   6
ATOM      6  C   LIG    1        1.279  -2.073   2.449  0.00  0.00    +0.050 C 
BRANCH   6   8
ATOM      7  C   LIG    1        1.132  -1.413   4.854  0.00  0.00    +0.040 C 
ATOM      8  C   LIG    1        0.483  -1.266   3.477  0.00  0.00    -0.010 C 
ENDBRANCH   6   8
ENDBRANCH   4   6
ENDBRANCH   1   4
BRANCH   1   9
ATOM      9  C   LIG    1       -0.553  -4.089   1.412  0.00  0.00    +0.240 C 
BRANCH   9  10
ATOM     10  C   LIG    1       -1.918  -4.746   1.632  0.00  0.00    -0.020 C 
ATOM     11  C   LIG    1       -1.744  -6.263   1.727  0.00  0.00    +0.070 C 
BRANCH  10  12
ATOM     12  C   LIG    1       -2.534  -4.221   2.930  0.00  0.00    +0.010 C 
BRANCH  12  13
ATOM     13  C   LIG    1       -3.944  -4.791   3.093  0.00  0.00    -0.020 C 
ATOM     14  C   LIG    1       -4.842  -4.258   1.975  0.00  0.00    +0.000 C 
ATOM     15  C   LIG    1       -4.512  -4.368   4.449  0.00  0.00    +0.030 C 
ENDBRANCH  12  13
ENDBRANCH  10  12
ENDBRANCH   9  10
ENDBRANCH   1   9
TORSDOF 7
ENDMDL
MODEL      423
REMARK  Name = ZINC001180166999
REMARK                            x       y       z     vdW  Elec       q    Type
REMARK                         _______ _______ _______ _____ _____    ______ ____
ROOT
ATOM      1  N   LIG    1        0.836  -0.502   2.512  0.00  0.00    -0.390 N 
ATOM      2  C   LIG    1       -0.479  -0.990   2.077  0.00  0.00    +0.320 C 
ATOM      3  H   LIG    1        0.850   0.506   2.477  0.00  0.00    +0.420 HD
ENDROOT
BRANCH   1   4
ATOM      4  C   LIG    1        1.875  -1.038   1.623  0.00  0.00    +0.160 C 
ATOM      5  C   LIG    1        3.246  -0.530   2.076  0.00  0.00    +0.080 C 
BRANCH   4   7
ATOM      6  C   LIG    1        1.753   0.947   0.110  0.00  0.00    +0.050 C 
ATOM      7  C   LIG    1        1.609  -0.575   0.190  0.00  0.00    -0.010 C 
ATOM      8  C   LIG    1        2.616  -1.232  -0.755  0.00  0.00    +0.070 C 
ENDBRANCH   4   7
ENDBRANCH   1   4
BRANCH   1   9
ATOM      9  C   LIG    1        1.093  -0.947   3.889  0.00  0.00    +0.250 C 
BRANCH   9  10
ATOM     10  C   LIG    1        0.035  -0.354   4.822  0.00  0.00    -0.010 C 
ATOM     11  C   LIG    1        0.237  -0.902   6.236  0.00  0.00    +0.070 C 
BRANCH  10  12
ATOM     12  C   LIG    1        0.168   1.169   4.841  0.00  0.00    -0.080 C 
ATOM     13  C   LIG    1        1.640   1.555   4.678  0.00  0.00    +0.040 C 
ATOM     14  C   LIG    1       -0.356   1.710   6.173  0.00  0.00    +0.050 C 
ATOM     15  C   LIG    1       -0.645   1.768   3.692  0.00  0.00    +0.030 C 
ENDBRANCH  10  12
ENDBRANCH   9  10
ENDBRANCH   1   9
TORSDOF 5
ENDMDL
MODEL      424
REMARK  Name = ZINC001180166997
REMARK                            x       y       z     vdW  Elec       q    Type
REMARK                         _______ _______ _______ _____ _____    ______ ____
ROOT
ATOM      1  N   LIG    1       -0.010  -0.139   2.447  0.00  0.00    -0.390 N 
ATOM      2  C   LIG    1       -1.349  -0.743   2.395  0.00  0.00    +0.320 C 
ATOM      3  H   LIG    1       -0.096   0.865   2.494  0.00  0.00    +0.420 HD
ENDROOT
BRANCH   1   4
ATOM      4  C   LIG    1        0.742  -0.511   1.242  0.00  0.00    +0.170 C 
ATOM      5  C   LIG    1        2.136   0.118   1.296  0.00  0.00    +0.080 C 
BRANCH   4   7
ATOM      6  C   LIG    1       -0.019   1.526   0.010  0.00  0.00    +0.040 C 
ATOM      7  C   LIG    1        0.002  -0.004   0.002  0.00  0.00    -0.010 C 
ATOM      8  C   LIG    1        0.718  -0.497  -1.257  0.00  0.00    +0.070 C 
ENDBRANCH   4   7
ENDBRANCH   1   4
BRANCH   1   9
ATOM      9  C   LIG    1        0.700  -0.626   3.637  0.00  0.00    +0.250 C 
BRANCH   9  10
ATOM     10  C   LIG    1       -0.016  -0.132   4.896  0.00  0.00    -0.020 C 
ATOM     11  C   LIG    1        0.072   1.393   4.968  0.00  0.00    +0.050 C 
BRANCH  10  12
ATOM     12  C   LIG    1        0.649  -0.740   6.133  0.00  0.00    -0.060 C 
ATOM     13  C   LIG    1        0.561  -2.266   6.061  0.00  0.00    +0.030 C 
ATOM     14  C   LIG    1       -0.067  -0.247   7.391  0.00  0.00    +0.040 C 
ATOM     15  C   LIG    1        2.118  -0.316   6.182  0.00  0.00    +0.030 C 
ENDBRANCH  10  12
ENDBRANCH   9  10
ENDBRANCH   1   9
TORSDOF 5
ENDMDL
MODEL      425
REMARK  Name = ZINC001180275196
REMARK                            x       y       z     vdW  Elec       q    Type
REMARK                         _______ _______ _______ _____ _____    ______ ____
ROOT
ATOM      1  N   LIG    1       -0.556  -2.447  -1.231  0.00  0.00    -0.380 N 
ATOM      2  C   LIG    1       -0.613  -3.905  -1.060  0.00  0.00    +0.320 C 
ATOM      3  H   LIG    1       -0.962  -2.196  -2.120  0.00  0.00    +0.420 HD
ENDROOT
BRANCH   1   4
ATOM      4  C   LIG    1        0.844  -2.004  -1.190  0.00  0.00    +0.160 C 
ATOM      5  C   LIG    1        1.498  -2.499   0.101  0.00  0.00    +0.080 C 
BRANCH   4   6
ATOM      6  C   LIG    1        1.596  -2.575  -2.394  0.00  0.00    +0.050 C 
BRANCH   6   8
ATOM      7  C   LIG    1        1.854  -2.453  -4.876  0.00  0.00    +0.030 C 
ATOM      8  C   LIG    1        1.022  -1.981  -3.682  0.00  0.00    -0.000 C 
ENDBRANCH   6   8
ENDBRANCH   4   6
ENDBRANCH   1   4
BRANCH   1   9
ATOM      9  C   LIG    1       -1.307  -1.797  -0.149  0.00  0.00    +0.250 C 
BRANCH   9  10
ATOM     10  C   LIG    1       -2.792  -2.140  -0.281  0.00  0.00    +0.030 C 
BRANCH  10  11
ATOM     11  C   LIG    1       -3.575  -1.464   0.846  0.00  0.00    +0.030 C 
BRANCH  11  12
ATOM     12  C   LIG    1       -5.060  -1.806   0.713  0.00  0.00    +0.020 C 
BRANCH  12  13
ATOM     13  C   LIG    1       -5.842  -1.130   1.840  0.00  0.00    -0.030 C 
ATOM     14  C   LIG    1       -7.306  -1.572   1.782  0.00  0.00    +0.030 C 
ATOM     15  C   LIG    1       -5.761   0.389   1.677  0.00  0.00    +0.020 C 
ENDBRANCH  12  13
ENDBRANCH  11  12
ENDBRANCH  10  11
ENDBRANCH   9  10
ENDBRANCH   1   9
TORSDOF 8
ENDMDL
MODEL      426
REMARK  Name = ZINC001180253423
REMARK                            x       y       z     vdW  Elec       q    Type
REMARK                         _______ _______ _______ _____ _____    ______ ____
ROOT
ATOM      1  N   LIG    1        1.725  -0.557  -0.134  0.00  0.00    -0.380 N 
ATOM      2  C   LIG    1        1.799  -2.022  -0.048  0.00  0.00    +0.310 C 
ATOM      3  H   LIG    1        1.439  -0.182   0.758  0.00  0.00    +0.420 HD
ENDROOT
BRANCH   1   5
ATOM      4  C   LIG    1        0.778   1.342  -1.355  0.00  0.00    +0.080 C 
ATOM      5  C   LIG    1        0.748  -0.175  -1.162  0.00  0.00    +0.170 C 
BRANCH   5   6
ATOM      6  C   LIG    1       -0.652  -0.606  -0.720  0.00  0.00    -0.080 C 
ATOM      7  C   LIG    1       -0.926  -0.079   0.690  0.00  0.00    +0.050 C 
ATOM      8  C   LIG    1       -0.740  -2.133  -0.721  0.00  0.00    +0.050 C 
ATOM      9  C   LIG    1       -1.690  -0.035  -1.689  0.00  0.00    +0.070 C 
ENDBRANCH   5   6
ENDBRANCH   1   5
BRANCH   1  10
ATOM     10  C   LIG    1        3.046  -0.021  -0.490  0.00  0.00    +0.240 C 
BRANCH  10  11
ATOM     11  C   LIG    1        4.035  -0.311   0.640  0.00  0.00    +0.040 C 
BRANCH  11  12
ATOM     12  C   LIG    1        5.411   0.248   0.270  0.00  0.00    -0.060 C 
ATOM     13  C   LIG    1        5.900  -0.414  -1.019  0.00  0.00    +0.030 C 
ATOM     14  C   LIG    1        6.400  -0.042   1.400  0.00  0.00    +0.040 C 
ATOM     15  C   LIG    1        5.307   1.760   0.059  0.00  0.00    +0.030 C 
ENDBRANCH  11  12
ENDBRANCH  10  11
ENDBRANCH   1  10
TORSDOF 5
ENDMDL
MODEL      427
REMARK  Name = ZINC001180253424
REMARK                            x       y       z     vdW  Elec       q    Type
REMARK                         _______ _______ _______ _____ _____    ______ ____
ROOT
ATOM      1  N   LIG    1       -0.968  -0.661  -0.157  0.00  0.00    -0.380 N 
ATOM      2  C   LIG    1       -1.907  -0.232  -1.202  0.00  0.00    +0.310 C 
ATOM      3  H   LIG    1       -1.400  -0.552   0.749  0.00  0.00    +0.420 HD
ENDROOT
BRANCH   1   5
ATOM      4  C   LIG    1        0.554   0.503  -1.682  0.00  0.00    +0.090 C 
ATOM      5  C   LIG    1        0.247   0.162  -0.222  0.00  0.00    +0.170 C 
BRANCH   5   6
ATOM      6  C   LIG    1        0.032   1.453   0.569  0.00  0.00    -0.080 C 
ATOM      7  C   LIG    1        1.300   2.307   0.507  0.00  0.00    +0.070 C 
ATOM      8  C   LIG    1       -0.282   1.112   2.027  0.00  0.00    +0.060 C 
ATOM      9  C   LIG    1       -1.138   2.233  -0.036  0.00  0.00    +0.050 C 
ENDBRANCH   5   6
ENDBRANCH   1   5
BRANCH   1  10
ATOM     10  C   LIG    1       -0.616  -2.072  -0.364  0.00  0.00    +0.240 C 
BRANCH  10  11
ATOM     11  C   LIG    1       -1.859  -2.942  -0.163  0.00  0.00    +0.040 C 
BRANCH  11  12
ATOM     12  C   LIG    1       -1.492  -4.412  -0.379  0.00  0.00    -0.060 C 
ATOM     13  C   LIG    1       -0.961  -4.601  -1.802  0.00  0.00    +0.030 C 
ATOM     14  C   LIG    1       -2.734  -5.282  -0.178  0.00  0.00    +0.040 C 
ATOM     15  C   LIG    1       -0.414  -4.822   0.626  0.00  0.00    +0.030 C 
ENDBRANCH  11  12
ENDBRANCH  10  11
ENDBRANCH   1  10
TORSDOF 5
ENDMDL
MODEL      428
REMARK  Name = ZINC001180431375
REMARK                            x       y       z     vdW  Elec       q    Type
REMARK                         _______ _______ _______ _____ _____    ______ ____
ROOT
ATOM      1  C   LIG    1        0.742  -0.511   1.242  0.00  0.00    -0.020 C 
ATOM      2  C   LIG    1       -0.042  -0.124   2.497  0.00  0.00    +0.020 C 
ATOM      3  C   LIG    1        0.698  -0.630   3.737  0.00  0.00    +0.010 C 
ATOM      4  C   LIG    1        0.828  -2.153   3.666  0.00  0.00    +0.020 C 
ATOM      5  C   LIG    1        1.612  -2.541   2.410  0.00  0.00    -0.020 C 
ATOM      6  C   LIG    1        0.872  -2.034   1.171  0.00  0.00    +0.040 C 
ENDROOT
BRANCH   1   8
ATOM      7  C   LIG    1       -0.019   1.526   0.010  0.00  0.00    +0.010 C 
ATOM      8  C   LIG    1        0.002  -0.004   0.002  0.00  0.00    +0.010 C 
ENDBRANCH   1   8
BRANCH   5   9
ATOM      9  C   LIG    1        3.006  -1.912   2.465  0.00  0.00    +0.250 C 
BRANCH   9  10
ATOM     10  N   LIG    1        3.759  -2.488   3.587  0.00  0.00    -0.390 N 
ATOM     11  C   LIG    1        3.987  -3.918   3.340  0.00  0.00    +0.310 C 
ATOM     12  H   LIG    1        3.233  -2.374   4.439  0.00  0.00    +0.420 HD
BRANCH  10  13
ATOM     13  C   LIG    1        5.051  -1.801   3.713  0.00  0.00    +0.160 C 
ATOM     14  C   LIG    1        5.836  -2.401   4.881  0.00  0.00    +0.090 C 
ATOM     15  C   LIG    1        4.814  -0.311   3.970  0.00  0.00    +0.080 C 
ENDBRANCH  10  13
ENDBRANCH   9  10
ENDBRANCH   5   9
TORSDOF 4
ENDMDL
MODEL      429
REMARK  Name = ZINC001180431372
REMARK                            x       y       z     vdW  Elec       q    Type
REMARK                         _______ _______ _______ _____ _____    ______ ____
ROOT
ATOM      1  C   LIG    1        0.975  -0.460   0.926  0.00  0.00    -0.010 C 
ATOM      2  C   LIG    1        2.446  -0.104   0.701  0.00  0.00    +0.020 C 
ATOM      3  C   LIG    1        2.962  -0.831  -0.543  0.00  0.00    +0.020 C 
ATOM      4  C   LIG    1        2.828  -2.342  -0.343  0.00  0.00    +0.030 C 
ATOM      5  C   LIG    1        1.357  -2.698  -0.117  0.00  0.00    -0.020 C 
ATOM      6  C   LIG    1        0.841  -1.970   1.126  0.00  0.00    +0.010 C 
ENDROOT
BRANCH   1   8
ATOM      7  C   LIG    1        0.187   1.492  -0.420  0.00  0.00    +0.020 C 
ATOM      8  C   LIG    1        0.154  -0.032  -0.292  0.00  0.00    +0.010 C 
ENDBRANCH   1   8
BRANCH   5   9
ATOM      9  C   LIG    1        1.223  -4.209   0.083  0.00  0.00    +0.250 C 
BRANCH   9  10
ATOM     10  N   LIG    1       -0.199  -4.567   0.170  0.00  0.00    -0.390 N 
ATOM     11  C   LIG    1       -0.853  -4.293  -1.117  0.00  0.00    +0.310 C 
ATOM     12  H   LIG    1       -0.640  -4.019   0.894  0.00  0.00    +0.420 HD
BRANCH  10  13
ATOM     13  C   LIG    1       -0.326  -5.995   0.491  0.00  0.00    +0.160 C 
ATOM     14  C   LIG    1       -1.807  -6.367   0.581  0.00  0.00    +0.090 C 
ATOM     15  C   LIG    1        0.354  -6.279   1.831  0.00  0.00    +0.080 C 
ENDBRANCH  10  13
ENDBRANCH   9  10
ENDBRANCH   5   9
TORSDOF 4
ENDMDL
MODEL      430
REMARK  Name = ZINC001180431264
REMARK                            x       y       z     vdW  Elec       q    Type
REMARK                         _______ _______ _______ _____ _____    ______ ____
ROOT
ATOM      1  C   LIG    1        1.597  -2.260   2.362  0.00  0.00    -0.020 C 
ATOM      2  C   LIG    1        0.848  -1.934   3.655  0.00  0.00    +0.030 C 
ATOM      3  C   LIG    1        1.730  -2.280   4.857  0.00  0.00    +0.020 C 
ATOM      4  C   LIG    1        2.071  -3.771   4.827  0.00  0.00    +0.020 C 
ATOM      5  C   LIG    1        2.821  -4.096   3.533  0.00  0.00    -0.060 C 
ATOM      6  C   LIG    1        3.162  -5.588   3.503  0.00  0.00    +0.030 C 
ATOM      7  C   LIG    1        4.111  -3.277   3.471  0.00  0.00    +0.020 C 
ATOM      8  C   LIG    1        1.938  -3.751   2.332  0.00  0.00    +0.020 C 
ENDROOT
BRANCH   1   9
ATOM      9  C   LIG    1        0.715  -1.914   1.161  0.00  0.00    +0.250 C 
BRANCH   9  10
ATOM     10  N   LIG    1        1.479  -2.106  -0.079  0.00  0.00    -0.390 N 
ATOM     11  C   LIG    1        2.586  -1.141  -0.127  0.00  0.00    +0.310 C 
ATOM     12  H   LIG    1        1.850  -3.044  -0.104  0.00  0.00    +0.420 HD
BRANCH  10  14
ATOM     13  C   LIG    1        1.393  -2.097  -2.527  0.00  0.00    +0.090 C 
ATOM     14  C   LIG    1        0.597  -1.897  -1.235  0.00  0.00    +0.160 C 
ATOM     15  C   LIG    1       -0.556  -2.902  -1.185  0.00  0.00    +0.080 C 
ENDBRANCH  10  14
ENDBRANCH   9  10
ENDBRANCH   1   9
TORSDOF 3
ENDMDL
MODEL      431
REMARK  Name = ZINC001180431263
REMARK                            x       y       z     vdW  Elec       q    Type
REMARK                         _______ _______ _______ _____ _____    ______ ____
ROOT
ATOM      1  C   LIG    1        1.578  -2.465   2.355  0.00  0.00    -0.020 C 
ATOM      2  C   LIG    1        3.034  -2.039   2.154  0.00  0.00    +0.000 C 
ATOM      3  C   LIG    1        3.879  -2.544   3.325  0.00  0.00    +0.020 C 
ATOM      4  C   LIG    1        3.799  -4.070   3.391  0.00  0.00    +0.020 C 
ATOM      5  C   LIG    1        2.343  -4.496   3.592  0.00  0.00    -0.060 C 
ATOM      6  C   LIG    1        1.813  -3.900   4.898  0.00  0.00    +0.020 C 
ATOM      7  C   LIG    1        2.262  -6.022   3.658  0.00  0.00    +0.030 C 
ATOM      8  C   LIG    1        1.497  -3.991   2.421  0.00  0.00    +0.040 C 
ENDROOT
BRANCH   1   9
ATOM      9  C   LIG    1        0.733  -1.960   1.184  0.00  0.00    +0.250 C 
BRANCH   9  10
ATOM     10  N   LIG    1        0.713  -0.491   1.192  0.00  0.00    -0.390 N 
ATOM     11  C   LIG    1        0.025  -0.017   2.401  0.00  0.00    +0.310 C 
ATOM     12  H   LIG    1        1.659  -0.141   1.185  0.00  0.00    +0.420 HD
BRANCH  10  14
ATOM     13  C   LIG    1       -0.019   1.526   0.010  0.00  0.00    +0.090 C 
ATOM     14  C   LIG    1        0.002  -0.004   0.002  0.00  0.00    +0.160 C 
ATOM     15  C   LIG    1        0.718  -0.497  -1.257  0.00  0.00    +0.080 C 
ENDBRANCH  10  14
ENDBRANCH   9  10
ENDBRANCH   1   9
TORSDOF 3
ENDMDL
MODEL      432
REMARK  Name = ZINC001180431373
REMARK                            x       y       z     vdW  Elec       q    Type
REMARK                         _______ _______ _______ _____ _____    ______ ____
ROOT
ATOM      1  C   LIG    1        0.742  -0.511   1.242  0.00  0.00    -0.020 C 
ATOM      2  C   LIG    1        2.210  -0.086   1.169  0.00  0.00    +0.020 C 
ATOM      3  C   LIG    1        2.950  -0.593   2.408  0.00  0.00    +0.020 C 
ATOM      4  C   LIG    1        2.863  -2.119   2.465  0.00  0.00    +0.000 C 
ATOM      5  C   LIG    1        1.395  -2.544   2.538  0.00  0.00    -0.020 C 
ATOM      6  C   LIG    1        0.655  -2.037   1.299  0.00  0.00    +0.030 C 
ENDROOT
BRANCH   1   8
ATOM      7  C   LIG    1       -0.019   1.526   0.010  0.00  0.00    +0.010 C 
ATOM      8  C   LIG    1        0.002  -0.004   0.002  0.00  0.00    +0.000 C 
ENDBRANCH   1   8
BRANCH   5   9
ATOM      9  C   LIG    1        1.309  -4.071   2.595  0.00  0.00    +0.250 C 
BRANCH   9  10
ATOM     10  N   LIG    1        1.915  -4.549   3.845  0.00  0.00    -0.390 N 
ATOM     11  C   LIG    1        1.123  -4.072   4.987  0.00  0.00    +0.310 C 
ATOM     12  H   LIG    1        2.857  -4.197   3.918  0.00  0.00    +0.420 HD
BRANCH  10  13
ATOM     13  C   LIG    1        1.940  -6.018   3.846  0.00  0.00    +0.160 C 
ATOM     14  C   LIG    1        2.571  -6.516   5.148  0.00  0.00    +0.090 C 
ATOM     15  C   LIG    1        2.764  -6.515   2.657  0.00  0.00    +0.080 C 
ENDBRANCH  10  13
ENDBRANCH   9  10
ENDBRANCH   5   9
TORSDOF 4
ENDMDL
MODEL      433
REMARK  Name = ZINC001180431374
REMARK                            x       y       z     vdW  Elec       q    Type
REMARK                         _______ _______ _______ _____ _____    ______ ____
ROOT
ATOM      1  C   LIG    1        0.873  -0.440   1.613  0.00  0.00    -0.010 C 
ATOM      2  C   LIG    1        0.220  -0.111   2.956  0.00  0.00    +0.020 C 
ATOM      3  C   LIG    1        1.030  -0.748   4.087  0.00  0.00    +0.020 C 
ATOM      4  C   LIG    1        1.065  -2.266   3.896  0.00  0.00    +0.030 C 
ATOM      5  C   LIG    1        1.718  -2.596   2.552  0.00  0.00    -0.020 C 
ATOM      6  C   LIG    1        0.908  -1.958   1.421  0.00  0.00    +0.020 C 
ENDROOT
BRANCH   1   8
ATOM      7  C   LIG    1        0.131   1.721   0.602  0.00  0.00    +0.010 C 
ATOM      8  C   LIG    1        0.062   0.197   0.482  0.00  0.00    +0.000 C 
ENDBRANCH   1   8
BRANCH   5   9
ATOM      9  C   LIG    1        1.754  -4.113   2.361  0.00  0.00    +0.250 C 
BRANCH   9  10
ATOM     10  N   LIG    1        2.494  -4.435   1.134  0.00  0.00    -0.390 N 
ATOM     11  C   LIG    1        3.900  -4.038   1.292  0.00  0.00    +0.310 C 
ATOM     12  H   LIG    1        2.089  -3.937   0.356  0.00  0.00    +0.420 HD
BRANCH  10  13
ATOM     13  C   LIG    1        2.419  -5.880   0.882  0.00  0.00    +0.160 C 
ATOM     14  C   LIG    1        3.191  -6.216  -0.396  0.00  0.00    +0.090 C 
ATOM     15  C   LIG    1        0.956  -6.294   0.717  0.00  0.00    +0.080 C 
ENDBRANCH  10  13
ENDBRANCH   9  10
ENDBRANCH   5   9
TORSDOF 4
ENDMDL
MODEL      434
REMARK  Name = ZINC000218988080
REMARK                            x       y       z     vdW  Elec       q    Type
REMARK                         _______ _______ _______ _____ _____    ______ ____
ROOT
ATOM      1  N   LIG    1        2.034  -4.839  -2.871  0.00  0.00    -0.390 N 
ATOM      2  C   LIG    1        3.279  -4.262  -2.348  0.00  0.00    +0.310 C 
ATOM      3  H   LIG    1        1.967  -4.654  -3.861  0.00  0.00    +0.420 HD
ENDROOT
BRANCH   1   4
ATOM      4  C   LIG    1        0.886  -4.233  -2.182  0.00  0.00    +0.250 C 
BRANCH   4   5
ATOM      5  C   LIG    1        0.816  -2.743  -2.521  0.00  0.00    +0.030 C 
BRANCH   5   6
ATOM      6  C   LIG    1       -0.379  -2.112  -1.804  0.00  0.00    +0.020 C 
BRANCH   6   7
ATOM      7  C   LIG    1       -0.449  -0.622  -2.143  0.00  0.00    +0.020 C 
BRANCH   7   9
ATOM      8  C   LIG    1       -1.713   1.500  -1.764  0.00  0.00    +0.020 C 
ATOM      9  C   LIG    1       -1.643   0.009  -1.425  0.00  0.00    -0.010 C 
ENDBRANCH   7   9
ENDBRANCH   6   7
ENDBRANCH   5   6
ENDBRANCH   4   5
ENDBRANCH   1   4
BRANCH   1  10
ATOM     10  C   LIG    1        2.032  -6.290  -2.643  0.00  0.00    +0.260 C 
BRANCH  10  11
ATOM     11  C   LIG    1        3.051  -6.954  -3.571  0.00  0.00    -0.090 C 
ATOM     12  C   LIG    1        2.785  -6.519  -5.013  0.00  0.00    +0.040 C 
ATOM     13  C   LIG    1        2.923  -8.475  -3.464  0.00  0.00    +0.070 C 
ATOM     14  C   LIG    1        4.463  -6.531  -3.162  0.00  0.00    +0.050 C 
ENDBRANCH  10  11
ENDBRANCH   1  10
TORSDOF 7
ENDMDL
MODEL      435
REMARK  Name = ZINC000147006964
REMARK                            x       y       z     vdW  Elec       q    Type
REMARK                         _______ _______ _______ _____ _____    ______ ____
ROOT
ATOM      1  N   LIG    1       -1.647  -0.392   0.033  0.00  0.00    -0.380 N 
ATOM      2  H   LIG    1       -2.251   0.117   0.661  0.00  0.00    +0.420 HD
ENDROOT
BRANCH   1   3
ATOM      3  C   LIG    1       -1.840  -1.835   0.229  0.00  0.00    +0.160 C 
ATOM      4  C   LIG    1       -3.299  -2.198  -0.058  0.00  0.00    +0.090 C 
ATOM      5  C   LIG    1       -1.498  -2.203   1.674  0.00  0.00    +0.080 C 
ENDBRANCH   1   3
BRANCH   1   7
ATOM      6  C   LIG    1        0.673  -0.895  -0.568  0.00  0.00    +0.070 C 
ATOM      7  C   LIG    1       -0.247  -0.043   0.308  0.00  0.00    +0.240 C 
ENDBRANCH   1   7
BRANCH   1   8
ATOM      8  C   LIG    1       -1.976  -0.038  -1.355  0.00  0.00    +0.240 C 
BRANCH   8   9
ATOM      9  C   LIG    1       -1.881   1.479  -1.530  0.00  0.00    +0.030 C 
BRANCH   9  10
ATOM     10  C   LIG    1       -2.359   1.861  -2.933  0.00  0.00    +0.030 C 
BRANCH  10  11
ATOM     11  C   LIG    1       -2.264   3.377  -3.109  0.00  0.00    -0.070 C 
ATOM     12  C   LIG    1       -3.145   4.068  -2.065  0.00  0.00    +0.020 C 
ATOM     13  C   LIG    1       -2.742   3.759  -4.511  0.00  0.00    +0.030 C 
ATOM     14  C   LIG    1       -0.812   3.822  -2.926  0.00  0.00    +0.020 C 
ENDBRANCH  10  11
ENDBRANCH   9  10
ENDBRANCH   8   9
ENDBRANCH   1   8
TORSDOF 6
ENDMDL
MODEL      436
REMARK  Name = ZINC000379361127
REMARK                            x       y       z     vdW  Elec       q    Type
REMARK                         _______ _______ _______ _____ _____    ______ ____
ROOT
ATOM      1  N   LIG    1       -2.908  -4.202  -0.069  0.00  0.00    -0.380 N 
ATOM      2  H   LIG    1       -2.489  -4.658  -0.866  0.00  0.00    +0.420 HD
ENDROOT
BRANCH   1   3
ATOM      3  C   LIG    1       -4.347  -4.494  -0.039  0.00  0.00    +0.160 C 
ATOM      4  C   LIG    1       -4.977  -4.093  -1.374  0.00  0.00    +0.080 C 
BRANCH   3   5
ATOM      5  C   LIG    1       -4.559  -5.991   0.195  0.00  0.00    -0.010 C 
ATOM      6  C   LIG    1       -3.933  -6.781  -0.956  0.00  0.00    +0.040 C 
ATOM      7  C   LIG    1       -6.058  -6.290   0.263  0.00  0.00    +0.070 C 
ENDBRANCH   3   5
ENDBRANCH   1   3
BRANCH   1   8
ATOM      8  C   LIG    1       -2.281  -4.699   1.163  0.00  0.00    +0.240 C 
ATOM      9  C   LIG    1       -2.995  -4.098   2.376  0.00  0.00    +0.080 C 
ENDBRANCH   1   8
BRANCH   1  10
ATOM     10  C   LIG    1       -2.704  -2.751  -0.172  0.00  0.00    +0.240 C 
BRANCH  10  11
ATOM     11  C   LIG    1       -1.212  -2.455  -0.329  0.00  0.00    +0.030 C 
BRANCH  11  12
ATOM     12  C   LIG    1       -1.000  -0.943  -0.436  0.00  0.00    +0.020 C 
BRANCH  12  14
ATOM     13  C   LIG    1        0.704   0.864  -0.699  0.00  0.00    +0.020 C 
ATOM     14  C   LIG    1        0.493  -0.647  -0.593  0.00  0.00    +0.010 C 
ENDBRANCH  12  14
ENDBRANCH  11  12
ENDBRANCH  10  11
ENDBRANCH   1  10
TORSDOF 7
ENDMDL
MODEL      437
REMARK  Name = ZINC000308396189
REMARK                            x       y       z     vdW  Elec       q    Type
REMARK                         _______ _______ _______ _____ _____    ______ ____
ROOT
ATOM      1  N   LIG    1        2.188  -4.541  -3.973  0.00  0.00    -0.390 N 
ATOM      2  C   LIG    1        3.567  -4.040  -3.905  0.00  0.00    +0.310 C 
ATOM      3  H   LIG    1        1.801  -4.340  -4.882  0.00  0.00    +0.420 HD
ENDROOT
BRANCH   1   4
ATOM      4  C   LIG    1        2.183  -5.993  -3.749  0.00  0.00    +0.170 C 
ATOM      5  C   LIG    1        3.064  -6.674  -4.799  0.00  0.00    +0.080 C 
BRANCH   4   6
ATOM      6  C   LIG    1        0.752  -6.522  -3.864  0.00  0.00    -0.020 C 
ATOM      7  C   LIG    1        0.746  -8.033  -3.623  0.00  0.00    +0.070 C 
ATOM      8  C   LIG    1        0.210  -6.226  -5.264  0.00  0.00    +0.040 C 
ENDBRANCH   4   6
ENDBRANCH   1   4
BRANCH   1   9
ATOM      9  C   LIG    1        1.377  -3.884  -2.939  0.00  0.00    +0.240 C 
BRANCH   9  10
ATOM     10  C   LIG    1        1.269  -2.390  -3.249  0.00  0.00    +0.030 C 
BRANCH  10  11
ATOM     11  C   LIG    1        0.424  -1.705  -2.173  0.00  0.00    +0.020 C 
BRANCH  11  12
ATOM     12  C   LIG    1        0.316  -0.211  -2.483  0.00  0.00    +0.020 C 
BRANCH  12  14
ATOM     13  C   LIG    1       -0.637   1.968  -1.717  0.00  0.00    +0.020 C 
ATOM     14  C   LIG    1       -0.529   0.474  -1.407  0.00  0.00    -0.010 C 
ENDBRANCH  12  14
ENDBRANCH  11  12
ENDBRANCH  10  11
ENDBRANCH   9  10
ENDBRANCH   1   9
TORSDOF 7
ENDMDL
MODEL      438
REMARK  Name = ZINC000379361126
REMARK                            x       y       z     vdW  Elec       q    Type
REMARK                         _______ _______ _______ _____ _____    ______ ____
ROOT
ATOM      1  N   LIG    1       -3.118  -4.049  -0.083  0.00  0.00    -0.380 N 
ATOM      2  H   LIG    1       -2.835  -4.202  -1.040  0.00  0.00    +0.420 HD
ENDROOT
BRANCH   1   3
ATOM      3  C   LIG    1       -4.463  -4.603   0.124  0.00  0.00    +0.160 C 
ATOM      4  C   LIG    1       -5.287  -4.435  -1.155  0.00  0.00    +0.080 C 
BRANCH   3   5
ATOM      5  C   LIG    1       -5.149  -3.861   1.273  0.00  0.00    -0.020 C 
ATOM      6  C   LIG    1       -4.419  -4.165   2.583  0.00  0.00    +0.030 C 
ATOM      7  C   LIG    1       -6.604  -4.321   1.381  0.00  0.00    +0.070 C 
ENDBRANCH   3   5
ENDBRANCH   1   3
BRANCH   1   8
ATOM      8  C   LIG    1       -2.170  -4.713   0.821  0.00  0.00    +0.230 C 
ATOM      9  C   LIG    1       -2.037  -6.186   0.427  0.00  0.00    +0.080 C 
ENDBRANCH   1   8
BRANCH   1  10
ATOM     10  C   LIG    1       -3.134  -2.607   0.197  0.00  0.00    +0.240 C 
BRANCH  10  11
ATOM     11  C   LIG    1       -1.780  -2.000  -0.177  0.00  0.00    +0.030 C 
BRANCH  11  12
ATOM     12  C   LIG    1       -1.797  -0.498   0.116  0.00  0.00    +0.020 C 
BRANCH  12  14
ATOM     13  C   LIG    1       -0.460   1.611   0.034  0.00  0.00    +0.020 C 
ATOM     14  C   LIG    1       -0.443   0.109  -0.259  0.00  0.00    +0.010 C 
ENDBRANCH  12  14
ENDBRANCH  11  12
ENDBRANCH  10  11
ENDBRANCH   1  10
TORSDOF 7
ENDMDL
MODEL      439
REMARK  Name = ZINC000308396190
REMARK                            x       y       z     vdW  Elec       q    Type
REMARK                         _______ _______ _______ _____ _____    ______ ____
ROOT
ATOM      1  N   LIG    1        2.414  -4.438  -3.447  0.00  0.00    -0.390 N 
ATOM      2  C   LIG    1        3.880  -4.538  -3.477  0.00  0.00    +0.310 C 
ATOM      3  H   LIG    1        2.091  -3.976  -4.284  0.00  0.00    +0.420 HD
ENDROOT
BRANCH   1   4
ATOM      4  C   LIG    1        1.833  -5.785  -3.375  0.00  0.00    +0.170 C 
ATOM      5  C   LIG    1        0.307  -5.686  -3.431  0.00  0.00    +0.080 C 
BRANCH   4   6
ATOM      6  C   LIG    1        2.333  -6.620  -4.556  0.00  0.00    -0.010 C 
ATOM      7  C   LIG    1        1.891  -5.966  -5.866  0.00  0.00    +0.040 C 
ATOM      8  C   LIG    1        1.748  -8.031  -4.467  0.00  0.00    +0.070 C 
ENDBRANCH   4   6
ENDBRANCH   1   4
BRANCH   1   9
ATOM      9  C   LIG    1        2.001  -3.663  -2.270  0.00  0.00    +0.240 C 
BRANCH   9  10
ATOM     10  C   LIG    1        2.502  -2.223  -2.405  0.00  0.00    +0.030 C 
BRANCH  10  11
ATOM     11  C   LIG    1        2.071  -1.416  -1.179  0.00  0.00    +0.020 C 
BRANCH  11  12
ATOM     12  C   LIG    1        2.572   0.023  -1.314  0.00  0.00    +0.020 C 
BRANCH  12  14
ATOM     13  C   LIG    1        2.642   2.270  -0.223  0.00  0.00    +0.020 C 
ATOM     14  C   LIG    1        2.141   0.831  -0.088  0.00  0.00    -0.010 C 
ENDBRANCH  12  14
ENDBRANCH  11  12
ENDBRANCH  10  11
ENDBRANCH   9  10
ENDBRANCH   1   9
TORSDOF 7
ENDMDL
MODEL      440
REMARK  Name = ZINC000379385713
REMARK                            x       y       z     vdW  Elec       q    Type
REMARK                         _______ _______ _______ _____ _____    ______ ____
ROOT
ATOM      1  N   LIG    1       -2.791  -2.572   0.015  0.00  0.00    -0.390 N 
ATOM      2  C   LIG    1       -3.465  -2.186  -1.232  0.00  0.00    +0.300 C 
ATOM      3  H   LIG    1       -3.288  -2.181   0.801  0.00  0.00    +0.420 HD
ENDROOT
BRANCH   1   4
ATOM      4  C   LIG    1       -1.413  -2.063   0.004  0.00  0.00    +0.250 C 
BRANCH   4   5
ATOM      5  C   LIG    1       -1.433  -0.534   0.013  0.00  0.00    +0.030 C 
BRANCH   5   7
ATOM      6  C   LIG    1       -0.019   1.526   0.010  0.00  0.00    +0.030 C 
ATOM      7  C   LIG    1        0.002  -0.004   0.002  0.00  0.00    +0.020 C 
ENDBRANCH   5   7
ENDBRANCH   4   5
ENDBRANCH   1   4
BRANCH   1   8
ATOM      8  C   LIG    1       -2.772  -4.037   0.128  0.00  0.00    +0.240 C 
BRANCH   8   9
ATOM      9  C   LIG    1       -4.204  -4.556   0.264  0.00  0.00    +0.040 C 
BRANCH   9  10
ATOM     10  C   LIG    1       -4.184  -6.082   0.381  0.00  0.00    -0.060 C 
ATOM     11  C   LIG    1       -3.374  -6.488   1.614  0.00  0.00    +0.020 C 
ATOM     12  C   LIG    1       -3.541  -6.681  -0.871  0.00  0.00    +0.020 C 
BRANCH  10  13
ATOM     13  C   LIG    1       -5.616  -6.602   0.517  0.00  0.00    +0.030 C 
ATOM     14  C   LIG    1       -5.596  -8.127   0.635  0.00  0.00    +0.020 C 
ENDBRANCH  10  13
ENDBRANCH   9  10
ENDBRANCH   8   9
ENDBRANCH   1   8
TORSDOF 7
ENDMDL
MODEL      441
REMARK  Name = ZINC001182532835
REMARK                            x       y       z     vdW  Elec       q    Type
REMARK                         _______ _______ _______ _____ _____    ______ ____
ROOT
ATOM      1  C   LIG    1       -2.833  -4.111  -0.244  0.00  0.00    +0.240 C 
ENDROOT
BRANCH   1   2
ATOM      2  N   LIG    1       -4.212  -4.620  -0.234  0.00  0.00    -0.380 N 
ATOM      3  C   LIG    1       -4.922  -4.133  -1.424  0.00  0.00    +0.320 C 
ATOM      4  H   LIG    1       -4.684  -4.294   0.596  0.00  0.00    +0.420 HD
BRANCH   2   5
ATOM      5  C   LIG    1       -4.192  -6.089  -0.242  0.00  0.00    +0.050 C 
ATOM      6  C   LIG    1       -3.475  -6.582  -1.501  0.00  0.00    +0.080 C 
ATOM      7  C   LIG    1       -5.627  -6.618  -0.231  0.00  0.00    +0.080 C 
ATOM      8  C   LIG    1       -3.452  -6.595   0.997  0.00  0.00    +0.090 C 
ENDBRANCH   2   5
ENDBRANCH   1   2
BRANCH   1   9
ATOM      9  C   LIG    1       -2.851  -2.587  -0.110  0.00  0.00    +0.030 C 
BRANCH   9  10
ATOM     10  C   LIG    1       -1.416  -2.058  -0.121  0.00  0.00    +0.030 C 
BRANCH  10  11
ATOM     11  C   LIG    1       -1.433  -0.534   0.013  0.00  0.00    +0.020 C 
BRANCH  11  13
ATOM     12  C   LIG    1       -0.019   1.526   0.010  0.00  0.00    +0.030 C 
ATOM     13  C   LIG    1        0.002  -0.004   0.002  0.00  0.00    -0.030 C 
ATOM     14  C   LIG    1        0.742  -0.511   1.242  0.00  0.00    +0.020 C 
ENDBRANCH  11  13
ENDBRANCH  10  11
ENDBRANCH   9  10
ENDBRANCH   1   9
TORSDOF 6
ENDMDL
MODEL      442
REMARK  Name = ZINC000728052924
REMARK                            x       y       z     vdW  Elec       q    Type
REMARK                         _______ _______ _______ _____ _____    ______ ____
ROOT
ATOM      1  C   LIG    1        1.342  -3.966  -2.543  0.00  0.00    +0.170 C 
ATOM      2  C   LIG    1       -0.127  -4.391  -2.592  0.00  0.00    +0.040 C 
ATOM      3  C   LIG    1       -0.215  -5.916  -2.664  0.00  0.00    +0.040 C 
ATOM      4  C   LIG    1        0.501  -6.410  -3.923  0.00  0.00    -0.010 C 
ATOM      5  C   LIG    1        1.970  -5.985  -3.873  0.00  0.00    +0.050 C 
ATOM      6  C   LIG    1        2.058  -4.459  -3.802  0.00  0.00    +0.040 C 
ENDROOT
BRANCH   1   7
ATOM      7  N   LIG    1        1.427  -2.501  -2.474  0.00  0.00    -0.380 N 
ATOM      8  C   LIG    1        2.837  -2.094  -2.426  0.00  0.00    +0.320 C 
ATOM      9  H   LIG    1        0.988  -2.100  -3.289  0.00  0.00    +0.420 HD
BRANCH   7  10
ATOM     10  C   LIG    1        0.739  -2.027  -1.265  0.00  0.00    +0.240 C 
BRANCH  10  11
ATOM     11  C   LIG    1        0.718  -0.497  -1.257  0.00  0.00    +0.030 C 
BRANCH  11  13
ATOM     12  C   LIG    1       -0.019   1.526   0.010  0.00  0.00    +0.030 C 
ATOM     13  C   LIG    1        0.002  -0.004   0.002  0.00  0.00    +0.020 C 
ENDBRANCH  11  13
ENDBRANCH  10  11
ENDBRANCH   7  10
ENDBRANCH   1   7
BRANCH   4  14
ATOM     14  C   LIG    1       -0.164  -5.802  -5.159  0.00  0.00    +0.010 C 
ATOM     15  C   LIG    1        0.470  -6.391  -6.421  0.00  0.00    +0.020 C 
ENDBRANCH   4  14
TORSDOF 5
ENDMDL
MODEL      443
REMARK  Name = ZINC000144994711
REMARK                            x       y       z     vdW  Elec       q    Type
REMARK                         _______ _______ _______ _____ _____    ______ ____
ROOT
ATOM      1  N   LIG    1       -4.205  -4.631   0.017  0.00  0.00    -0.390 N 
ATOM      2  C   LIG    1       -4.879  -4.245  -1.229  0.00  0.00    +0.300 C 
ATOM      3  H   LIG    1       -4.702  -4.240   0.803  0.00  0.00    +0.420 HD
ENDROOT
BRANCH   1   4
ATOM      4  C   LIG    1       -2.827  -4.123   0.007  0.00  0.00    +0.250 C 
BRANCH   4   5
ATOM      5  C   LIG    1       -2.848  -2.593   0.015  0.00  0.00    +0.030 C 
BRANCH   5   6
ATOM      6  C   LIG    1       -1.413  -2.063   0.004  0.00  0.00    +0.020 C 
BRANCH   6   7
ATOM      7  C   LIG    1       -1.433  -0.534   0.013  0.00  0.00    +0.020 C 
BRANCH   7   9
ATOM      8  C   LIG    1       -0.019   1.526   0.010  0.00  0.00    +0.020 C 
ATOM      9  C   LIG    1        0.002  -0.004   0.002  0.00  0.00    -0.010 C 
ENDBRANCH   7   9
ENDBRANCH   6   7
ENDBRANCH   5   6
ENDBRANCH   4   5
ENDBRANCH   1   4
BRANCH   1  10
ATOM     10  C   LIG    1       -4.186  -6.096   0.130  0.00  0.00    +0.250 C 
BRANCH  10  11
ATOM     11  C   LIG    1       -5.619  -6.616   0.266  0.00  0.00    +0.030 C 
BRANCH  11  12
ATOM     12  C   LIG    1       -5.598  -8.141   0.384  0.00  0.00    -0.010 C 
ATOM     13  C   LIG    1       -5.071  -8.746  -0.919  0.00  0.00    +0.020 C 
ATOM     14  C   LIG    1       -7.017  -8.651   0.645  0.00  0.00    +0.040 C 
ENDBRANCH  11  12
ENDBRANCH  10  11
ENDBRANCH   1  10
TORSDOF 8
ENDMDL
MODEL      444
REMARK  Name = ZINC000388232147
REMARK                            x       y       z     vdW  Elec       q    Type
REMARK                         _______ _______ _______ _____ _____    ______ ____
ROOT
ATOM      1  N   LIG    1       -2.764  -3.817  -0.261  0.00  0.00    -0.380 N 
ATOM      2  H   LIG    1       -2.247  -4.028   0.580  0.00  0.00    +0.420 HD
ENDROOT
BRANCH   1   3
ATOM      3  C   LIG    1       -2.122  -4.473  -1.408  0.00  0.00    +0.160 C 
ATOM      4  C   LIG    1       -2.976  -4.263  -2.660  0.00  0.00    +0.080 C 
ATOM      5  C   LIG    1       -1.987  -5.972  -1.128  0.00  0.00    +0.090 C 
ENDBRANCH   1   3
BRANCH   1   6
ATOM      6  C   LIG    1       -2.780  -2.364  -0.474  0.00  0.00    +0.240 C 
BRANCH   6   7
ATOM      7  C   LIG    1       -1.345  -1.831  -0.460  0.00  0.00    +0.030 C 
BRANCH   7   8
ATOM      8  C   LIG    1       -1.356  -0.331  -0.760  0.00  0.00    +0.020 C 
BRANCH   8  10
ATOM      9  C   LIG    1        0.067   1.703  -1.046  0.00  0.00    +0.020 C 
ATOM     10  C   LIG    1        0.078   0.203  -0.746  0.00  0.00    +0.000 C 
ENDBRANCH   8  10
ENDBRANCH   7   8
ENDBRANCH   6   7
ENDBRANCH   1   6
BRANCH   1  11
ATOM     11  C   LIG    1       -4.142  -4.307  -0.125  0.00  0.00    +0.240 C 
BRANCH  11  12
ATOM     12  C   LIG    1       -4.763  -3.734   1.151  0.00  0.00    -0.030 C 
ATOM     13  C   LIG    1       -4.002  -4.260   2.369  0.00  0.00    +0.030 C 
ATOM     14  C   LIG    1       -6.229  -4.163   1.241  0.00  0.00    +0.070 C 
ENDBRANCH  11  12
ENDBRANCH   1  11
TORSDOF 7
ENDMDL
MODEL      445
REMARK  Name = ZINC000388578025
REMARK                            x       y       z     vdW  Elec       q    Type
REMARK                         _______ _______ _______ _____ _____    ______ ____
ROOT
ATOM      1  N   LIG    1        0.082  -0.027   2.330  0.00  0.00    -0.380 N 
ATOM      2  C   LIG    1        0.835  -0.327   3.555  0.00  0.00    +0.310 C 
ATOM      3  H   LIG    1       -0.809  -0.500   2.358  0.00  0.00    +0.420 HD
ENDROOT
BRANCH   1   4
ATOM      4  C   LIG    1        0.844  -0.489   1.162  0.00  0.00    +0.160 C 
ATOM      5  C   LIG    1        2.245   0.126   1.191  0.00  0.00    +0.080 C 
BRANCH   4   7
ATOM      6  C   LIG    1       -0.434  -2.632   1.040  0.00  0.00    +0.030 C 
ATOM      7  C   LIG    1        0.957  -2.014   1.197  0.00  0.00    +0.050 C 
ENDBRANCH   4   7
ENDBRANCH   1   4
BRANCH   1   8
ATOM      8  C   LIG    1       -0.136   1.422   2.230  0.00  0.00    +0.240 C 
BRANCH   8   9
ATOM      9  C   LIG    1       -1.055   1.879   3.365  0.00  0.00    +0.040 C 
BRANCH   9  10
ATOM     10  C   LIG    1       -1.281   3.389   3.262  0.00  0.00    -0.060 C 
ATOM     11  C   LIG    1       -1.931   3.716   1.916  0.00  0.00    +0.020 C 
ATOM     12  C   LIG    1        0.061   4.114   3.369  0.00  0.00    +0.020 C 
BRANCH  10  13
ATOM     13  C   LIG    1       -2.200   3.845   4.396  0.00  0.00    +0.030 C 
ATOM     14  C   LIG    1       -2.427   5.355   4.293  0.00  0.00    +0.020 C 
ENDBRANCH  10  13
ENDBRANCH   9  10
ENDBRANCH   8   9
ENDBRANCH   1   8
TORSDOF 6
ENDMDL
MODEL      446
REMARK  Name = ZINC000388578024
REMARK                            x       y       z     vdW  Elec       q    Type
REMARK                         _______ _______ _______ _____ _____    ______ ____
ROOT
ATOM      1  N   LIG    1        2.288  -0.217   1.160  0.00  0.00    -0.380 N 
ATOM      2  C   LIG    1        2.405   1.240   1.308  0.00  0.00    +0.310 C 
ATOM      3  H   LIG    1        2.842  -0.521   0.373  0.00  0.00    +0.420 HD
ENDROOT
BRANCH   1   4
ATOM      4  C   LIG    1        0.881  -0.576   0.936  0.00  0.00    +0.160 C 
ATOM      5  C   LIG    1        0.059  -0.216   2.175  0.00  0.00    +0.080 C 
BRANCH   4   7
ATOM      6  C   LIG    1        1.516  -2.424  -0.621  0.00  0.00    +0.030 C 
ATOM      7  C   LIG    1        0.774  -2.079   0.672  0.00  0.00    +0.050 C 
ENDBRANCH   4   7
ENDBRANCH   1   4
BRANCH   1   8
ATOM      8  C   LIG    1        2.772  -0.874   2.382  0.00  0.00    +0.240 C 
BRANCH   8   9
ATOM      9  C   LIG    1        4.265  -0.588   2.557  0.00  0.00    +0.040 C 
BRANCH   9  10
ATOM     10  C   LIG    1        4.769  -1.272   3.830  0.00  0.00    -0.060 C 
ATOM     11  C   LIG    1        4.548  -2.782   3.719  0.00  0.00    +0.020 C 
ATOM     12  C   LIG    1        4.001  -0.732   5.038  0.00  0.00    +0.020 C 
BRANCH  10  13
ATOM     13  C   LIG    1        6.262  -0.987   4.005  0.00  0.00    +0.030 C 
ATOM     14  C   LIG    1        6.766  -1.671   5.278  0.00  0.00    +0.020 C 
ENDBRANCH  10  13
ENDBRANCH   9  10
ENDBRANCH   8   9
ENDBRANCH   1   8
TORSDOF 6
ENDMDL
MODEL      447
REMARK  Name = ZINC000388711757
REMARK                            x       y       z     vdW  Elec       q    Type
REMARK                         _______ _______ _______ _____ _____    ______ ____
ROOT
ATOM      1  N   LIG    1        0.516  -1.958  -1.120  0.00  0.00    -0.390 N 
ATOM      2  H   LIG    1       -0.452  -2.239  -1.177  0.00  0.00    +0.420 HD
ENDROOT
BRANCH   1   3
ATOM      3  C   LIG    1        0.625  -0.518  -1.392  0.00  0.00    +0.240 C 
ATOM      4  C   LIG    1       -0.037  -0.202  -2.735  0.00  0.00    +0.080 C 
ENDBRANCH   1   3
BRANCH   1   5
ATOM      5  C   LIG    1        1.030  -2.242   0.226  0.00  0.00    +0.240 C 
BRANCH   5   7
ATOM      6  C   LIG    1        0.673  -1.861   2.669  0.00  0.00    +0.060 C 
ATOM      7  C   LIG    1        0.137  -1.565   1.267  0.00  0.00    +0.030 C 
ENDBRANCH   5   7
ENDBRANCH   1   5
BRANCH   1   8
ATOM      8  C   LIG    1        1.301  -2.704  -2.112  0.00  0.00    +0.250 C 
BRANCH   8   9
ATOM      9  C   LIG    1        1.082  -4.205  -1.911  0.00  0.00    +0.040 C 
BRANCH   9  10
ATOM     10  C   LIG    1        1.801  -4.978  -3.019  0.00  0.00    -0.060 C 
ATOM     11  C   LIG    1        3.299  -4.670  -2.967  0.00  0.00    +0.020 C 
ATOM     12  C   LIG    1        1.241  -4.559  -4.380  0.00  0.00    +0.020 C 
BRANCH  10  13
ATOM     13  C   LIG    1        1.582  -6.479  -2.818  0.00  0.00    +0.030 C 
ATOM     14  C   LIG    1        2.301  -7.252  -3.925  0.00  0.00    +0.020 C 
ENDBRANCH  10  13
ENDBRANCH   9  10
ENDBRANCH   8   9
ENDBRANCH   1   8
TORSDOF 7
ENDMDL
MODEL      448
REMARK  Name = ZINC000388753738
REMARK                            x       y       z     vdW  Elec       q    Type
REMARK                         _______ _______ _______ _____ _____    ______ ____
ROOT
ATOM      1  N   LIG    1       -3.619  -4.575  -1.100  0.00  0.00    -0.380 N 
ATOM      2  C   LIG    1       -2.533  -5.395  -0.548  0.00  0.00    +0.300 C 
ATOM      3  H   LIG    1       -3.649  -4.687  -2.102  0.00  0.00    +0.420 HD
ENDROOT
BRANCH   1   4
ATOM      4  C   LIG    1       -4.899  -5.002  -0.520  0.00  0.00    +0.170 C 
ATOM      5  C   LIG    1       -6.046  -4.545  -1.424  0.00  0.00    +0.090 C 
BRANCH   4   6
ATOM      6  C   LIG    1       -5.064  -4.379   0.867  0.00  0.00    -0.080 C 
ATOM      7  C   LIG    1       -3.798  -4.624   1.690  0.00  0.00    +0.050 C 
ATOM      8  C   LIG    1       -6.262  -5.017   1.573  0.00  0.00    +0.070 C 
ATOM      9  C   LIG    1       -5.298  -2.874   0.726  0.00  0.00    +0.050 C 
ENDBRANCH   4   6
ENDBRANCH   1   4
BRANCH   1  10
ATOM     10  C   LIG    1       -3.381  -3.163  -0.773  0.00  0.00    +0.240 C 
BRANCH  10  11
ATOM     11  C   LIG    1       -2.224  -2.630  -1.622  0.00  0.00    +0.010 C 
BRANCH  11  12
ATOM     12  C   LIG    1       -1.976  -1.160  -1.281  0.00  0.00    +0.020 C 
BRANCH  12  14
ATOM     13  C   LIG    1       -0.571   0.843  -1.789  0.00  0.00    +0.020 C 
ATOM     14  C   LIG    1       -0.820  -0.628  -2.130  0.00  0.00    +0.010 C 
ENDBRANCH  12  14
ENDBRANCH  11  12
ENDBRANCH  10  11
ENDBRANCH   1  10
TORSDOF 6
ENDMDL
MODEL      449
REMARK  Name = ZINC000388753742
REMARK                            x       y       z     vdW  Elec       q    Type
REMARK                         _______ _______ _______ _____ _____    ______ ____
ROOT
ATOM      1  N   LIG    1       -3.022  -3.976   0.360  0.00  0.00    -0.380 N 
ATOM      2  C   LIG    1       -2.233  -4.752   1.327  0.00  0.00    +0.310 C 
ATOM      3  H   LIG    1       -2.507  -3.893  -0.504  0.00  0.00    +0.420 HD
ENDROOT
BRANCH   1   4
ATOM      4  C   LIG    1       -4.297  -4.660   0.108  0.00  0.00    +0.170 C 
ATOM      5  C   LIG    1       -5.326  -4.224   1.153  0.00  0.00    +0.090 C 
BRANCH   4   6
ATOM      6  C   LIG    1       -4.803  -4.296  -1.289  0.00  0.00    -0.080 C 
ATOM      7  C   LIG    1       -5.027  -2.784  -1.373  0.00  0.00    +0.050 C 
ATOM      8  C   LIG    1       -6.122  -5.022  -1.559  0.00  0.00    +0.070 C 
ATOM      9  C   LIG    1       -3.766  -4.716  -2.333  0.00  0.00    +0.060 C 
ENDBRANCH   4   6
ENDBRANCH   1   4
BRANCH   1  10
ATOM     10  C   LIG    1       -3.284  -2.637   0.905  0.00  0.00    +0.230 C 
BRANCH  10  11
ATOM     11  C   LIG    1       -1.967  -1.866   1.020  0.00  0.00    +0.020 C 
BRANCH  11  12
ATOM     12  C   LIG    1       -2.240  -0.472   1.587  0.00  0.00    +0.020 C 
BRANCH  12  14
ATOM     13  C   LIG    1       -1.196   1.693   2.269  0.00  0.00    +0.020 C 
ATOM     14  C   LIG    1       -0.923   0.299   1.702  0.00  0.00    +0.010 C 
ENDBRANCH  12  14
ENDBRANCH  11  12
ENDBRANCH  10  11
ENDBRANCH   1  10
TORSDOF 6
ENDMDL
MODEL      450
REMARK  Name = ZINC000646088740
REMARK                            x       y       z     vdW  Elec       q    Type
REMARK                         _______ _______ _______ _____ _____    ______ ____
ROOT
ATOM      1  C   LIG    1        0.713  -0.491   1.192  0.00  0.00    +0.240 C 
ENDROOT
BRANCH   1   3
ATOM      2  C   LIG    1       -0.018   1.465   0.010  0.00  0.00    +0.320 C 
ATOM      3  N   LIG    1        0.002  -0.004   0.002  0.00  0.00    -0.380 N 
ATOM      4  H   LIG    1        0.474  -0.330  -0.828  0.00  0.00    +0.420 HD
BRANCH   3   5
ATOM      5  C   LIG    1       -1.376  -0.512   0.012  0.00  0.00    +0.050 C 
ATOM      6  C   LIG    1       -2.092  -0.019   1.271  0.00  0.00    +0.080 C 
ATOM      7  C   LIG    1       -1.355  -2.042   0.004  0.00  0.00    +0.090 C 
ATOM      8  C   LIG    1       -2.116  -0.006  -1.227  0.00  0.00    +0.080 C 
ENDBRANCH   3   5
ENDBRANCH   1   3
BRANCH   1   9
ATOM      9  C   LIG    1        2.180  -0.066   1.119  0.00  0.00    +0.070 C 
BRANCH   9  10
ATOM     10  C   LIG    1        2.909  -0.565   2.340  0.00  0.00    -0.140 C 
ATOM     11  C   LIG    1        3.544  -1.689   2.250  0.00  0.00    -0.010 C 
ATOM     12  C   LIG    1        4.305  -2.318   3.381  0.00  0.00    +0.060 C 
ATOM     13  C   LIG    1        4.579  -1.281   4.472  0.00  0.00    +0.010 C 
ATOM     14  C   LIG    1        3.265  -0.561   4.800  0.00  0.00    +0.020 C 
ATOM     15  C   LIG    1        2.859   0.276   3.582  0.00  0.00    +0.070 C 
ENDBRANCH   9  10
ENDBRANCH   1   9
TORSDOF 4
ENDMDL
MODEL      451
REMARK  Name = ZINC000660079929
REMARK                            x       y       z     vdW  Elec       q    Type
REMARK                         _______ _______ _______ _____ _____    ______ ____
ROOT
ATOM      1  N   LIG    1       -4.527   0.464  -0.906  0.00  0.00    -0.380 N 
ATOM      2  H   LIG    1       -4.566   1.468  -0.808  0.00  0.00    +0.420 HD
ENDROOT
BRANCH   1   3
ATOM      3  C   LIG    1       -5.129   0.073  -2.187  0.00  0.00    +0.150 C 
ATOM      4  C   LIG    1       -6.355   0.916  -2.575  0.00  0.00    +0.060 C 
ATOM      5  C   LIG    1       -5.820   0.888  -4.017  0.00  0.00    +0.060 C 
ATOM      6  C   LIG    1       -4.422   0.680  -3.410  0.00  0.00    +0.050 C 
ENDBRANCH   1   3
BRANCH   1   7
ATOM      7  C   LIG    1       -5.270  -0.164   0.196  0.00  0.00    +0.160 C 
ATOM      8  C   LIG    1       -5.312  -1.679  -0.016  0.00  0.00    +0.080 C 
ATOM      9  C   LIG    1       -6.697   0.386   0.228  0.00  0.00    +0.090 C 
ENDBRANCH   1   7
BRANCH   1  10
ATOM     10  C   LIG    1       -3.127   0.022  -0.867  0.00  0.00    +0.250 C 
BRANCH  10  11
ATOM     11  C   LIG    1       -2.470   0.521   0.421  0.00  0.00    +0.070 C 
BRANCH  11  14
ATOM     12  C   LIG    1       -0.348   2.343   0.758  0.00  0.00    +0.080 C 
ATOM     13  C   LIG    1       -0.064   0.868   0.644  0.00  0.00    -0.080 C 
ATOM     14  C   LIG    1       -1.050   0.020   0.488  0.00  0.00    -0.080 C 
ATOM     15  C   LIG    1        1.356   0.367   0.711  0.00  0.00    +0.090 C 
ENDBRANCH  11  14
ENDBRANCH  10  11
ENDBRANCH   1  10
TORSDOF 5
ENDMDL
MODEL      452
REMARK  Name = ZINC000080224370
REMARK                            x       y       z     vdW  Elec       q    Type
REMARK                         _______ _______ _______ _____ _____    ______ ____
ROOT
ATOM      1  N   LIG    1        0.064  -0.040   2.419  0.00  0.00    -0.380 N 
ATOM      2  H   LIG    1       -0.060   0.920   2.703  0.00  0.00    +0.420 HD
ENDROOT
BRANCH   1   3
ATOM      3  C   LIG    1        1.113  -0.662   3.238  0.00  0.00    +0.160 C 
ATOM      4  C   LIG    1        2.457   0.006   2.940  0.00  0.00    +0.030 C 
ATOM      5  C   LIG    1        3.549  -0.641   3.793  0.00  0.00    +0.030 C 
ATOM      6  C   LIG    1        3.210  -0.465   5.275  0.00  0.00    +0.020 C 
ATOM      7  C   LIG    1        1.866  -1.133   5.574  0.00  0.00    +0.030 C 
ATOM      8  C   LIG    1        0.774  -0.485   4.720  0.00  0.00    +0.040 C 
ENDBRANCH   1   3
BRANCH   1   9
ATOM      9  C   LIG    1       -1.197  -0.771   2.601  0.00  0.00    +0.160 C 
ATOM     10  C   LIG    1       -2.000  -0.129   3.734  0.00  0.00    +0.080 C 
ATOM     11  C   LIG    1       -0.895  -2.229   2.952  0.00  0.00    +0.080 C 
ENDBRANCH   1   9
BRANCH   1  12
ATOM     12  C   LIG    1        0.457  -0.086   1.004  0.00  0.00    +0.240 C 
BRANCH  12  14
ATOM     13  C   LIG    1       -0.598   2.142   0.597  0.00  0.00    +0.030 C 
ATOM     14  C   LIG    1       -0.571   0.675   0.164  0.00  0.00    -0.030 C 
ATOM     15  C   LIG    1       -0.189   0.586  -1.314  0.00  0.00    +0.070 C 
ENDBRANCH  12  14
ENDBRANCH   1  12
TORSDOF 4
ENDMDL
MODEL      453
REMARK  Name = ZINC000642253361
REMARK                            x       y       z     vdW  Elec       q    Type
REMARK                         _______ _______ _______ _____ _____    ______ ____
ROOT
ATOM      1  N   LIG    1       -0.751  -2.492   1.223  0.00  0.00    -0.380 N 
ATOM      2  C   LIG    1       -0.738  -3.944   0.999  0.00  0.00    +0.310 C 
ATOM      3  H   LIG    1       -1.141  -2.295   2.132  0.00  0.00    +0.420 HD
ENDROOT
BRANCH   1   4
ATOM      4  C   LIG    1       -1.568  -1.844   0.188  0.00  0.00    +0.160 C 
ATOM      5  C   LIG    1       -1.045  -2.237  -1.195  0.00  0.00    +0.090 C 
BRANCH   4   6
ATOM      6  C   LIG    1       -3.023  -2.296   0.331  0.00  0.00    +0.050 C 
BRANCH   6   8
ATOM      7  C   LIG    1       -5.072  -2.141   1.752  0.00  0.00    +0.030 C 
ATOM      8  C   LIG    1       -3.582  -1.801   1.666  0.00  0.00    -0.000 C 
ENDBRANCH   6   8
ENDBRANCH   4   6
ENDBRANCH   1   4
BRANCH   1   9
ATOM      9  C   LIG    1        0.623  -1.974   1.157  0.00  0.00    +0.250 C 
BRANCH   9  10
ATOM     10  C   LIG    1        0.626  -0.489   1.525  0.00  0.00    -0.020 C 
ATOM     11  C   LIG    1        0.203  -0.324   2.986  0.00  0.00    +0.000 C 
ATOM     12  C   LIG    1        0.206   1.161   3.353  0.00  0.00    +0.020 C 
ATOM     13  C   LIG    1        1.613   1.731   3.162  0.00  0.00    +0.010 C 
ATOM     14  C   LIG    1        2.036   1.566   1.701  0.00  0.00    +0.020 C 
ATOM     15  C   LIG    1        2.033   0.081   1.333  0.00  0.00    +0.030 C 
ENDBRANCH   9  10
ENDBRANCH   1   9
TORSDOF 5
ENDMDL
MODEL      454
REMARK  Name = ZINC001190448184
REMARK                            x       y       z     vdW  Elec       q    Type
REMARK                         _______ _______ _______ _____ _____    ______ ____
ROOT
ATOM      1  C   LIG    1       -0.273  -0.323  -4.728  0.00  0.00    +0.250 C 
ENDROOT
BRANCH   1   2
ATOM      2  N   LIG    1       -0.049   0.221  -3.382  0.00  0.00    -0.380 N 
ATOM      3  H   LIG    1        0.832   0.713  -3.361  0.00  0.00    +0.420 HD
BRANCH   2   4
ATOM      4  C   LIG    1       -1.136   1.147  -3.040  0.00  0.00    +0.160 C 
ATOM      5  C   LIG    1       -0.705   2.580  -3.357  0.00  0.00    +0.080 C 
ATOM      6  C   LIG    1       -1.456   1.029  -1.548  0.00  0.00    +0.080 C 
ENDBRANCH   2   4
BRANCH   2   8
ATOM      7  C   LIG    1        1.172  -1.793  -2.710  0.00  0.00    +0.080 C 
ATOM      8  C   LIG    1       -0.017  -0.879  -2.409  0.00  0.00    +0.250 C 
ENDBRANCH   2   8
ENDBRANCH   1   2
BRANCH   1   9
ATOM      9  C   LIG    1       -0.370   0.827  -5.733  0.00  0.00    -0.020 C 
ATOM     10  C   LIG    1        1.014   1.448  -5.932  0.00  0.00    +0.040 C 
BRANCH   9  11
ATOM     11  C   LIG    1       -0.886   0.293  -7.071  0.00  0.00    +0.050 C 
BRANCH  11  12
ATOM     12  C   LIG    1       -1.130   1.462  -8.026  0.00  0.00    -0.060 C 
ATOM     13  C   LIG    1       -1.772   2.621  -7.261  0.00  0.00    +0.030 C 
ATOM     14  C   LIG    1       -2.065   1.015  -9.152  0.00  0.00    +0.030 C 
ATOM     15  C   LIG    1        0.202   1.921  -8.622  0.00  0.00    +0.020 C 
ENDBRANCH  11  12
ENDBRANCH   9  11
ENDBRANCH   1   9
TORSDOF 6
ENDMDL
MODEL      455
REMARK  Name = ZINC000642253360
REMARK                            x       y       z     vdW  Elec       q    Type
REMARK                         _______ _______ _______ _____ _____    ______ ____
ROOT
ATOM      1  N   LIG    1       -0.814  -2.693  -1.348  0.00  0.00    -0.390 N 
ATOM      2  C   LIG    1        0.645  -2.541  -1.417  0.00  0.00    +0.310 C 
ATOM      3  H   LIG    1       -1.229  -2.350  -2.201  0.00  0.00    +0.420 HD
ENDROOT
BRANCH   1   4
ATOM      4  C   LIG    1       -1.333  -1.927  -0.207  0.00  0.00    +0.160 C 
ATOM      5  C   LIG    1       -0.787  -2.516   1.095  0.00  0.00    +0.080 C 
BRANCH   4   6
ATOM      6  C   LIG    1       -2.862  -1.998  -0.198  0.00  0.00    +0.050 C 
BRANCH   6   8
ATOM      7  C   LIG    1       -4.939  -1.397  -1.450  0.00  0.00    +0.040 C 
ATOM      8  C   LIG    1       -3.412  -1.304  -1.446  0.00  0.00    -0.010 C 
ENDBRANCH   6   8
ENDBRANCH   4   6
ENDBRANCH   1   4
BRANCH   1   9
ATOM      9  C   LIG    1       -1.151  -4.113  -1.177  0.00  0.00    +0.240 C 
BRANCH   9  10
ATOM     10  C   LIG    1       -0.701  -4.896  -2.412  0.00  0.00    -0.020 C 
ATOM     11  C   LIG    1       -0.935  -6.391  -2.182  0.00  0.00    +0.030 C 
ATOM     12  C   LIG    1       -0.485  -7.173  -3.417  0.00  0.00    +0.020 C 
ATOM     13  C   LIG    1       -1.288  -6.713  -4.634  0.00  0.00    +0.010 C 
ATOM     14  C   LIG    1       -1.054  -5.218  -4.864  0.00  0.00    +0.020 C 
ATOM     15  C   LIG    1       -1.504  -4.435  -3.629  0.00  0.00    +0.000 C 
ENDBRANCH   9  10
ENDBRANCH   1   9
TORSDOF 5
ENDMDL
MODEL      456
REMARK  Name = ZINC000642252312
REMARK                            x       y       z     vdW  Elec       q    Type
REMARK                         _______ _______ _______ _____ _____    ______ ____
ROOT
ATOM      1  N   LIG    1        0.719  -0.488   3.684  0.00  0.00    -0.390 N 
ATOM      2  C   LIG    1        1.876   0.413   3.779  0.00  0.00    +0.310 C 
ATOM      3  H   LIG    1        1.035  -1.446   3.725  0.00  0.00    +0.420 HD
ENDROOT
BRANCH   1   4
ATOM      4  C   LIG    1        0.021  -0.257   2.413  0.00  0.00    +0.250 C 
BRANCH   4   5
ATOM      5  C   LIG    1        0.935  -0.648   1.250  0.00  0.00    +0.030 C 
BRANCH   5   7
ATOM      6  C   LIG    1       -0.051   1.090  -0.249  0.00  0.00    +0.020 C 
ATOM      7  C   LIG    1        0.207  -0.407  -0.074  0.00  0.00    -0.010 C 
ATOM      8  C   LIG    1        1.072  -0.914  -1.230  0.00  0.00    +0.040 C 
ENDBRANCH   5   7
ENDBRANCH   4   5
ENDBRANCH   1   4
BRANCH   1   9
ATOM      9  C   LIG    1       -0.198  -0.226   4.802  0.00  0.00    +0.250 C 
BRANCH   9  10
ATOM     10  C   LIG    1        0.484  -0.600   6.119  0.00  0.00    -0.020 C 
ATOM     11  C   LIG    1       -0.417  -0.202   7.290  0.00  0.00    +0.030 C 
ATOM     12  C   LIG    1        0.265  -0.576   8.608  0.00  0.00    +0.020 C 
ATOM     13  C   LIG    1        0.512  -2.086   8.645  0.00  0.00    +0.010 C 
ATOM     14  C   LIG    1        1.413  -2.483   7.473  0.00  0.00    +0.020 C 
ATOM     15  C   LIG    1        0.731  -2.110   6.156  0.00  0.00    +0.010 C 
ENDBRANCH   9  10
ENDBRANCH   1   9
TORSDOF 5
ENDMDL
MODEL      457
REMARK  Name = ZINC001190448179
REMARK                            x       y       z     vdW  Elec       q    Type
REMARK                         _______ _______ _______ _____ _____    ______ ____
ROOT
ATOM      1  C   LIG    1        0.599  -2.988  -0.681  0.00  0.00    +0.240 C 
ENDROOT
BRANCH   1   2
ATOM      2  N   LIG    1        0.139  -1.622  -0.398  0.00  0.00    -0.380 N 
ATOM      3  H   LIG    1       -0.356  -1.262  -1.200  0.00  0.00    +0.420 HD
BRANCH   2   4
ATOM      4  C   LIG    1       -0.759  -1.639   0.765  0.00  0.00    +0.160 C 
ATOM      5  C   LIG    1       -0.057  -2.320   1.941  0.00  0.00    +0.080 C 
ATOM      6  C   LIG    1       -2.033  -2.411   0.415  0.00  0.00    +0.090 C 
ENDBRANCH   2   4
BRANCH   2   8
ATOM      7  C   LIG    1        0.831   0.683   0.050  0.00  0.00    +0.080 C 
ATOM      8  C   LIG    1        1.296  -0.765  -0.111  0.00  0.00    +0.240 C 
ENDBRANCH   2   8
ENDBRANCH   1   2
BRANCH   1   9
ATOM      9  C   LIG    1        1.401  -2.997  -1.984  0.00  0.00    -0.020 C 
ATOM     10  C   LIG    1        0.479  -2.641  -3.152  0.00  0.00    +0.040 C 
BRANCH   9  11
ATOM     11  C   LIG    1        1.995  -4.389  -2.208  0.00  0.00    +0.050 C 
BRANCH  11  12
ATOM     12  C   LIG    1        3.135  -4.300  -3.225  0.00  0.00    -0.070 C 
ATOM     13  C   LIG    1        2.621  -3.648  -4.511  0.00  0.00    +0.030 C 
ATOM     14  C   LIG    1        3.651  -5.705  -3.537  0.00  0.00    +0.030 C 
ATOM     15  C   LIG    1        4.271  -3.455  -2.644  0.00  0.00    +0.020 C 
ENDBRANCH  11  12
ENDBRANCH   9  11
ENDBRANCH   1   9
TORSDOF 6
ENDMDL
MODEL      458
REMARK  Name = ZINC001190331786
REMARK                            x       y       z     vdW  Elec       q    Type
REMARK                         _______ _______ _______ _____ _____    ______ ____
ROOT
ATOM      1  C   LIG    1        0.806  -3.906  -2.320  0.00  0.00    +0.250 C 
ENDROOT
BRANCH   1   2
ATOM      2  N   LIG    1       -0.497  -4.256  -2.901  0.00  0.00    -0.360 N 
ATOM      3  H   LIG    1       -1.234  -3.884  -2.322  0.00  0.00    +0.420 HD
BRANCH   2   4
ATOM      4  C   LIG    1       -0.623  -5.718  -2.975  0.00  0.00    +0.090 C 
ATOM      5  C   LIG    1       -1.651  -6.385  -2.059  0.00  0.00    +0.100 C 
ATOM      6  C   LIG    1       -1.916  -6.286  -3.563  0.00  0.00    +0.100 C 
ENDBRANCH   2   4
BRANCH   2   7
ATOM      7  C   LIG    1       -0.600  -3.687  -4.251  0.00  0.00    +0.240 C 
ATOM      8  C   LIG    1        0.431  -4.353  -5.165  0.00  0.00    +0.080 C 
ENDBRANCH   2   7
ENDBRANCH   1   2
BRANCH   1   9
ATOM      9  C   LIG    1        0.870  -2.395  -2.085  0.00  0.00    -0.020 C 
BRANCH   9  10
ATOM     10  C   LIG    1        2.256  -2.019  -1.557  0.00  0.00    +0.040 C 
ATOM     11  C   LIG    1        3.305  -2.295  -2.636  0.00  0.00    +0.020 C 
ENDBRANCH   9  10
BRANCH   9  12
ATOM     12  C   LIG    1       -0.192  -1.992  -1.061  0.00  0.00    +0.000 C 
BRANCH  12  13
ATOM     13  C   LIG    1       -0.212  -0.469  -0.920  0.00  0.00    +0.020 C 
BRANCH  13  15
ATOM     14  C   LIG    1       -1.295   1.458   0.246  0.00  0.00    +0.020 C 
ATOM     15  C   LIG    1       -1.275  -0.066   0.105  0.00  0.00    -0.010 C 
ENDBRANCH  13  15
ENDBRANCH  12  13
ENDBRANCH   9  12
ENDBRANCH   1   9
TORSDOF 8
ENDMDL
MODEL      459
REMARK  Name = ZINC001190331787
REMARK                            x       y       z     vdW  Elec       q    Type
REMARK                         _______ _______ _______ _____ _____    ______ ____
ROOT
ATOM      1  C   LIG    1        1.595  -3.917  -2.491  0.00  0.00    +0.250 C 
ENDROOT
BRANCH   1   2
ATOM      2  N   LIG    1        2.441  -4.507  -3.538  0.00  0.00    -0.360 N 
ATOM      3  H   LIG    1        2.140  -4.171  -4.441  0.00  0.00    +0.420 HD
BRANCH   2   4
ATOM      4  C   LIG    1        2.323  -5.971  -3.496  0.00  0.00    +0.090 C 
ATOM      5  C   LIG    1        1.480  -6.580  -2.374  0.00  0.00    +0.090 C 
ATOM      6  C   LIG    1        0.956  -6.579  -3.811  0.00  0.00    +0.100 C 
ENDBRANCH   2   4
BRANCH   2   7
ATOM      7  C   LIG    1        3.840  -4.121  -3.312  0.00  0.00    +0.250 C 
ATOM      8  C   LIG    1        4.697  -4.605  -4.483  0.00  0.00    +0.080 C 
ENDBRANCH   2   7
ENDBRANCH   1   2
BRANCH   1   9
ATOM      9  C   LIG    1        1.619  -2.393  -2.615  0.00  0.00    -0.010 C 
BRANCH   9  10
ATOM     10  C   LIG    1        0.973  -1.978  -3.938  0.00  0.00    +0.000 C 
ATOM     11  C   LIG    1        1.121  -0.467  -4.126  0.00  0.00    +0.040 C 
ENDBRANCH   9  10
BRANCH   9  12
ATOM     12  C   LIG    1        0.841  -1.774  -1.451  0.00  0.00    +0.040 C 
BRANCH  12  13
ATOM     13  C   LIG    1        1.566  -2.072  -0.137  0.00  0.00    +0.000 C 
BRANCH  13  15
ATOM     14  C   LIG    1        1.585  -1.645   2.324  0.00  0.00    +0.000 C 
ATOM     15  C   LIG    1        0.860  -1.347   1.010  0.00  0.00    +0.000 C 
ENDBRANCH  13  15
ENDBRANCH  12  13
ENDBRANCH   9  12
ENDBRANCH   1   9
TORSDOF 8
ENDMDL
MODEL      460
REMARK  Name = ZINC000642527031
REMARK                            x       y       z     vdW  Elec       q    Type
REMARK                         _______ _______ _______ _____ _____    ______ ____
ROOT
ATOM      1  N   LIG    1       -1.548  -0.401   0.003  0.00  0.00    -0.390 N 
ATOM      2  H   LIG    1       -2.087   0.122   0.677  0.00  0.00    +0.420 HD
ENDROOT
BRANCH   1   4
ATOM      3  C   LIG    1        0.696  -0.892  -0.846  0.00  0.00    +0.080 C 
ATOM      4  C   LIG    1       -0.123  -0.089   0.168  0.00  0.00    +0.240 C 
ENDBRANCH   1   4
BRANCH   1   5
ATOM      5  C   LIG    1       -1.762  -1.839   0.216  0.00  0.00    +0.250 C 
BRANCH   5   6
ATOM      6  C   LIG    1       -1.435  -2.194   1.667  0.00  0.00    -0.020 C 
ATOM      7  C   LIG    1       -2.427  -1.495   2.599  0.00  0.00    +0.000 C 
ATOM      8  C   LIG    1       -2.099  -1.850   4.051  0.00  0.00    +0.020 C 
ATOM      9  C   LIG    1       -2.202  -3.365   4.241  0.00  0.00    +0.010 C 
ATOM     10  C   LIG    1       -1.210  -4.064   3.309  0.00  0.00    +0.020 C 
ATOM     11  C   LIG    1       -1.537  -3.709   1.857  0.00  0.00    +0.030 C 
ENDBRANCH   5   6
ENDBRANCH   1   5
BRANCH   1  12
ATOM     12  C   LIG    1       -1.976  -0.038  -1.355  0.00  0.00    +0.250 C 
BRANCH  12  13
ATOM     13  C   LIG    1       -1.881   1.479  -1.530  0.00  0.00    -0.030 C 
ATOM     14  C   LIG    1       -2.855   2.165  -0.571  0.00  0.00    +0.030 C 
ATOM     15  C   LIG    1       -2.240   1.849  -2.971  0.00  0.00    +0.070 C 
ENDBRANCH  12  13
ENDBRANCH   1  12
TORSDOF 5
ENDMDL
MODEL      461
REMARK  Name = ZINC001190348575
REMARK                            x       y       z     vdW  Elec       q    Type
REMARK                         _______ _______ _______ _____ _____    ______ ____
ROOT
ATOM      1  N   LIG    1       -2.828  -2.674   0.029  0.00  0.00    -0.360 N 
ATOM      2  H   LIG    1       -3.429  -2.312  -0.696  0.00  0.00    +0.420 HD
ENDROOT
BRANCH   1   3
ATOM      3  C   LIG    1       -3.379  -2.318   1.344  0.00  0.00    +0.090 C 
ATOM      4  C   LIG    1       -4.604  -1.402   1.371  0.00  0.00    +0.100 C 
ATOM      5  C   LIG    1       -4.751  -2.886   1.712  0.00  0.00    +0.090 C 
ENDBRANCH   1   3
BRANCH   1   6
ATOM      6  C   LIG    1       -1.486  -2.095  -0.112  0.00  0.00    +0.250 C 
BRANCH   6   7
ATOM      7  C   LIG    1       -1.586  -0.568  -0.115  0.00  0.00    +0.020 C 
BRANCH   7   9
ATOM      8  C   LIG    1       -0.288   1.561  -0.265  0.00  0.00    +0.030 C 
ATOM      9  C   LIG    1       -0.188   0.035  -0.262  0.00  0.00    +0.020 C 
ENDBRANCH   7   9
ENDBRANCH   6   7
ENDBRANCH   1   6
BRANCH   1  10
ATOM     10  C   LIG    1       -2.746  -4.136  -0.088  0.00  0.00    +0.250 C 
BRANCH  10  11
ATOM     11  C   LIG    1       -2.312  -4.510  -1.506  0.00  0.00    +0.030 C 
BRANCH  11  12
ATOM     12  C   LIG    1       -2.366  -6.030  -1.671  0.00  0.00    +0.030 C 
BRANCH  12  13
ATOM     13  C   LIG    1       -1.932  -6.405  -3.090  0.00  0.00    -0.030 C 
ATOM     14  C   LIG    1       -2.943  -5.852  -4.096  0.00  0.00    +0.020 C 
ATOM     15  C   LIG    1       -1.866  -7.928  -3.217  0.00  0.00    +0.030 C 
ENDBRANCH  12  13
ENDBRANCH  11  12
ENDBRANCH  10  11
ENDBRANCH   1  10
TORSDOF 8
ENDMDL
MODEL      462
REMARK  Name = ZINC000642634138
REMARK                            x       y       z     vdW  Elec       q    Type
REMARK                         _______ _______ _______ _____ _____    ______ ____
ROOT
ATOM      1  N   LIG    1        1.498  -2.404  -2.465  0.00  0.00    -0.360 N 
ATOM      2  H   LIG    1        1.078  -1.857  -3.201  0.00  0.00    +0.420 HD
ENDROOT
BRANCH   1   3
ATOM      3  C   LIG    1        1.430  -3.829  -2.814  0.00  0.00    +0.170 C 
ATOM      4  C   LIG    1       -0.033  -4.243  -2.986  0.00  0.00    +0.040 C 
ATOM      5  C   LIG    1       -0.103  -5.728  -3.349  0.00  0.00    +0.030 C 
ATOM      6  C   LIG    1        0.652  -5.969  -4.658  0.00  0.00    +0.020 C 
ATOM      7  C   LIG    1        2.115  -5.555  -4.487  0.00  0.00    +0.030 C 
ATOM      8  C   LIG    1        2.185  -4.070  -4.123  0.00  0.00    +0.030 C 
ENDBRANCH   1   3
BRANCH   1   9
ATOM      9  C   LIG    1        2.903  -2.007  -2.300  0.00  0.00    +0.090 C 
ATOM     10  C   LIG    1        3.506  -1.087  -3.364  0.00  0.00    +0.100 C 
ATOM     11  C   LIG    1        3.188  -0.540  -1.970  0.00  0.00    +0.100 C 
ENDBRANCH   1   9
BRANCH   1  12
ATOM     12  C   LIG    1        0.773  -2.173  -1.208  0.00  0.00    +0.250 C 
BRANCH  12  13
ATOM     13  C   LIG    1        1.359  -3.064  -0.111  0.00  0.00    +0.040 C 
BRANCH  13  15
ATOM     14  C   LIG    1        1.284  -3.615   2.325  0.00  0.00    +0.030 C 
ATOM     15  C   LIG    1        0.699  -2.724   1.228  0.00  0.00    +0.020 C 
ENDBRANCH  13  15
ENDBRANCH  12  13
ENDBRANCH   1  12
TORSDOF 5
ENDMDL
MODEL      463
REMARK  Name = ZINC000642621278
REMARK                            x       y       z     vdW  Elec       q    Type
REMARK                         _______ _______ _______ _____ _____    ______ ____
ROOT
ATOM      1  N   LIG    1       -0.918  -2.523  -1.548  0.00  0.00    -0.380 N 
ATOM      2  C   LIG    1        0.541  -2.353  -1.535  0.00  0.00    +0.310 C 
ATOM      3  H   LIG    1       -1.322  -1.910  -2.240  0.00  0.00    +0.420 HD
ENDROOT
BRANCH   1   4
ATOM      4  C   LIG    1       -1.461  -2.191  -0.223  0.00  0.00    +0.160 C 
ATOM      5  C   LIG    1       -0.965  -3.212   0.802  0.00  0.00    +0.080 C 
BRANCH   4   6
ATOM      6  C   LIG    1       -2.990  -2.223  -0.276  0.00  0.00    +0.060 C 
BRANCH   6   8
ATOM      7  C   LIG    1       -5.006  -1.265  -1.398  0.00  0.00    +0.050 C 
ATOM      8  C   LIG    1       -3.490  -1.143  -1.238  0.00  0.00    -0.040 C 
ATOM      9  C   LIG    1       -3.145   0.239  -0.678  0.00  0.00    +0.030 C 
ENDBRANCH   6   8
ENDBRANCH   4   6
ENDBRANCH   1   4
BRANCH   1  10
ATOM     10  C   LIG    1       -1.246  -3.916  -1.876  0.00  0.00    +0.250 C 
BRANCH  10  11
ATOM     11  C   LIG    1       -0.866  -4.201  -3.330  0.00  0.00    -0.020 C 
ATOM     12  C   LIG    1        0.673  -4.298  -3.478  0.00  0.00    +0.020 C 
ATOM     13  C   LIG    1        0.840  -5.152  -4.760  0.00  0.00    +0.020 C 
ATOM     14  C   LIG    1       -0.291  -6.197  -4.668  0.00  0.00    +0.010 C 
ATOM     15  C   LIG    1       -1.375  -5.592  -3.759  0.00  0.00    +0.040 C 
ENDBRANCH  10  11
ENDBRANCH   1  10
TORSDOF 5
ENDMDL
MODEL      464
REMARK  Name = ZINC000642621279
REMARK                            x       y       z     vdW  Elec       q    Type
REMARK                         _______ _______ _______ _____ _____    ______ ____
ROOT
ATOM      1  N   LIG    1       -0.819  -2.493   1.145  0.00  0.00    -0.380 N 
ATOM      2  C   LIG    1       -1.266  -3.855   0.826  0.00  0.00    +0.310 C 
ATOM      3  H   LIG    1       -1.126  -2.247   2.075  0.00  0.00    +0.420 HD
ENDROOT
BRANCH   1   4
ATOM      4  C   LIG    1       -1.392  -1.550   0.176  0.00  0.00    +0.160 C 
ATOM      5  C   LIG    1       -2.918  -1.659   0.198  0.00  0.00    +0.080 C 
BRANCH   4   6
ATOM      6  C   LIG    1       -0.978  -0.124   0.545  0.00  0.00    +0.040 C 
BRANCH   6   8
ATOM      7  C   LIG    1       -1.202   2.285  -0.077  0.00  0.00    +0.040 C 
ATOM      8  C   LIG    1       -1.500   0.850  -0.514  0.00  0.00    -0.010 C 
ATOM      9  C   LIG    1       -0.809   0.569  -1.850  0.00  0.00    +0.020 C 
ENDBRANCH   6   8
ENDBRANCH   4   6
ENDBRANCH   1   4
BRANCH   1  10
ATOM     10  C   LIG    1        0.647  -2.430   1.081  0.00  0.00    +0.250 C 
BRANCH  10  11
ATOM     11  C   LIG    1        1.243  -3.262   2.219  0.00  0.00    -0.020 C 
ATOM     12  C   LIG    1        1.220  -4.769   1.858  0.00  0.00    +0.020 C 
ATOM     13  C   LIG    1        2.343  -5.351   2.752  0.00  0.00    +0.020 C 
ATOM     14  C   LIG    1        3.440  -4.266   2.736  0.00  0.00    +0.010 C 
ATOM     15  C   LIG    1        2.741  -2.939   2.397  0.00  0.00    +0.030 C 
ENDBRANCH  10  11
ENDBRANCH   1  10
TORSDOF 5
ENDMDL
MODEL      465
REMARK  Name = ZINC000642636185
REMARK                            x       y       z     vdW  Elec       q    Type
REMARK                         _______ _______ _______ _____ _____    ______ ____
ROOT
ATOM      1  N   LIG    1       -2.794  -2.566  -0.111  0.00  0.00    -0.380 N 
ATOM      2  C   LIG    1       -3.504  -2.079  -1.301  0.00  0.00    +0.320 C 
ATOM      3  H   LIG    1       -3.266  -2.241   0.719  0.00  0.00    +0.420 HD
ENDROOT
BRANCH   1   4
ATOM      4  C   LIG    1       -2.774  -4.035  -0.119  0.00  0.00    +0.160 C 
ATOM      5  C   LIG    1       -4.209  -4.565  -0.108  0.00  0.00    +0.040 C 
ATOM      6  C   LIG    1       -4.189  -6.094  -0.116  0.00  0.00    +0.040 C 
ATOM      7  C   LIG    1       -3.449  -6.601   1.123  0.00  0.00    +0.020 C 
ATOM      8  C   LIG    1       -2.013  -6.072   1.112  0.00  0.00    +0.000 C 
ATOM      9  C   LIG    1       -1.297  -6.565  -0.147  0.00  0.00    +0.030 C 
ATOM     10  C   LIG    1       -2.034  -4.542   1.121  0.00  0.00    +0.040 C 
ENDBRANCH   1   4
BRANCH   1  11
ATOM     11  C   LIG    1       -1.416  -2.058  -0.121  0.00  0.00    +0.240 C 
BRANCH  11  12
ATOM     12  C   LIG    1       -1.433  -0.534   0.013  0.00  0.00    +0.040 C 
BRANCH  12  14
ATOM     13  C   LIG    1       -0.019   1.526   0.010  0.00  0.00    +0.040 C 
ATOM     14  C   LIG    1        0.002  -0.004   0.002  0.00  0.00    -0.010 C 
ATOM     15  C   LIG    1        0.742  -0.511   1.242  0.00  0.00    +0.020 C 
ENDBRANCH  12  14
ENDBRANCH  11  12
ENDBRANCH   1  11
TORSDOF 4
ENDMDL
MODEL      466
REMARK  Name = ZINC000642636186
REMARK                            x       y       z     vdW  Elec       q    Type
REMARK                         _______ _______ _______ _____ _____    ______ ____
ROOT
ATOM      1  N   LIG    1       -2.794  -2.566  -0.111  0.00  0.00    -0.380 N 
ATOM      2  C   LIG    1       -3.504  -2.079  -1.301  0.00  0.00    +0.320 C 
ATOM      3  H   LIG    1       -3.266  -2.241   0.719  0.00  0.00    +0.420 HD
ENDROOT
BRANCH   1   4
ATOM      4  C   LIG    1       -2.774  -4.035  -0.119  0.00  0.00    +0.170 C 
ATOM      5  C   LIG    1       -2.034  -4.542   1.121  0.00  0.00    +0.040 C 
ATOM      6  C   LIG    1       -2.013  -6.072   1.112  0.00  0.00    +0.040 C 
ATOM      7  C   LIG    1       -3.449  -6.601   1.123  0.00  0.00    +0.020 C 
ATOM      8  C   LIG    1       -4.189  -6.094  -0.116  0.00  0.00    +0.000 C 
ATOM      9  C   LIG    1       -5.624  -6.624  -0.106  0.00  0.00    +0.040 C 
ATOM     10  C   LIG    1       -4.209  -4.565  -0.108  0.00  0.00    +0.040 C 
ENDBRANCH   1   4
BRANCH   1  11
ATOM     11  C   LIG    1       -1.416  -2.058  -0.121  0.00  0.00    +0.240 C 
BRANCH  11  12
ATOM     12  C   LIG    1       -1.433  -0.534   0.013  0.00  0.00    +0.040 C 
BRANCH  12  14
ATOM     13  C   LIG    1       -0.019   1.526   0.010  0.00  0.00    +0.040 C 
ATOM     14  C   LIG    1        0.002  -0.004   0.002  0.00  0.00    -0.010 C 
ATOM     15  C   LIG    1        0.742  -0.511   1.242  0.00  0.00    +0.020 C 
ENDBRANCH  12  14
ENDBRANCH  11  12
ENDBRANCH   1  11
TORSDOF 4
ENDMDL
MODEL      467
REMARK  Name = ZINC000642636188
REMARK                            x       y       z     vdW  Elec       q    Type
REMARK                         _______ _______ _______ _____ _____    ______ ____
ROOT
ATOM      1  N   LIG    1       -2.794  -2.566  -0.111  0.00  0.00    -0.380 N 
ATOM      2  C   LIG    1       -3.504  -2.079  -1.301  0.00  0.00    +0.320 C 
ATOM      3  H   LIG    1       -3.266  -2.241   0.719  0.00  0.00    +0.420 HD
ENDROOT
BRANCH   1   4
ATOM      4  C   LIG    1       -2.774  -4.035  -0.119  0.00  0.00    +0.160 C 
ATOM      5  C   LIG    1       -2.034  -4.542   1.121  0.00  0.00    +0.040 C 
ATOM      6  C   LIG    1       -2.013  -6.072   1.112  0.00  0.00    +0.040 C 
ATOM      7  C   LIG    1       -3.449  -6.601   1.123  0.00  0.00    +0.020 C 
ATOM      8  C   LIG    1       -4.189  -6.094  -0.116  0.00  0.00    +0.000 C 
ATOM      9  C   LIG    1       -3.472  -6.588  -1.375  0.00  0.00    +0.030 C 
ATOM     10  C   LIG    1       -4.209  -4.565  -0.108  0.00  0.00    +0.040 C 
ENDBRANCH   1   4
BRANCH   1  11
ATOM     11  C   LIG    1       -1.416  -2.058  -0.121  0.00  0.00    +0.240 C 
BRANCH  11  12
ATOM     12  C   LIG    1       -1.433  -0.534   0.013  0.00  0.00    +0.040 C 
BRANCH  12  14
ATOM     13  C   LIG    1       -0.019   1.526   0.010  0.00  0.00    +0.040 C 
ATOM     14  C   LIG    1        0.002  -0.004   0.002  0.00  0.00    -0.010 C 
ATOM     15  C   LIG    1        0.742  -0.511   1.242  0.00  0.00    +0.020 C 
ENDBRANCH  12  14
ENDBRANCH  11  12
ENDBRANCH   1  11
TORSDOF 4
ENDMDL
MODEL      468
REMARK  Name = ZINC000642636187
REMARK                            x       y       z     vdW  Elec       q    Type
REMARK                         _______ _______ _______ _____ _____    ______ ____
ROOT
ATOM      1  N   LIG    1       -2.794  -2.566  -0.111  0.00  0.00    -0.380 N 
ATOM      2  C   LIG    1       -3.504  -2.079  -1.301  0.00  0.00    +0.320 C 
ATOM      3  H   LIG    1       -3.266  -2.241   0.719  0.00  0.00    +0.420 HD
ENDROOT
BRANCH   1   4
ATOM      4  C   LIG    1       -2.774  -4.035  -0.119  0.00  0.00    +0.170 C 
ATOM      5  C   LIG    1       -4.209  -4.565  -0.108  0.00  0.00    +0.040 C 
ATOM      6  C   LIG    1       -4.189  -6.094  -0.116  0.00  0.00    +0.040 C 
ATOM      7  C   LIG    1       -3.449  -6.601   1.123  0.00  0.00    +0.020 C 
ATOM      8  C   LIG    1       -2.013  -6.072   1.112  0.00  0.00    +0.000 C 
ATOM      9  C   LIG    1       -1.273  -6.579   2.352  0.00  0.00    +0.040 C 
ATOM     10  C   LIG    1       -2.034  -4.542   1.121  0.00  0.00    +0.040 C 
ENDBRANCH   1   4
BRANCH   1  11
ATOM     11  C   LIG    1       -1.416  -2.058  -0.121  0.00  0.00    +0.240 C 
BRANCH  11  12
ATOM     12  C   LIG    1       -1.433  -0.534   0.013  0.00  0.00    +0.040 C 
BRANCH  12  14
ATOM     13  C   LIG    1       -0.019   1.526   0.010  0.00  0.00    +0.040 C 
ATOM     14  C   LIG    1        0.002  -0.004   0.002  0.00  0.00    -0.010 C 
ATOM     15  C   LIG    1        0.742  -0.511   1.242  0.00  0.00    +0.020 C 
ENDBRANCH  12  14
ENDBRANCH  11  12
ENDBRANCH   1  11
TORSDOF 4
ENDMDL
MODEL      469
REMARK  Name = ZINC001190651990
REMARK                            x       y       z     vdW  Elec       q    Type
REMARK                         _______ _______ _______ _____ _____    ______ ____
ROOT
ATOM      1  N   LIG    1       -1.340  -1.674   0.327  0.00  0.00    -0.380 N 
ATOM      2  H   LIG    1       -0.741  -1.703  -0.485  0.00  0.00    +0.420 HD
ENDROOT
BRANCH   1   3
ATOM      3  C   LIG    1       -2.712  -2.024  -0.066  0.00  0.00    +0.160 C 
ATOM      4  C   LIG    1       -3.220  -1.015  -1.097  0.00  0.00    +0.080 C 
BRANCH   3   5
ATOM      5  C   LIG    1       -2.726  -3.427  -0.675  0.00  0.00    -0.020 C 
ATOM      6  C   LIG    1       -1.820  -3.458  -1.907  0.00  0.00    +0.050 C 
BRANCH   5   7
ATOM      7  C   LIG    1       -4.155  -3.791  -1.083  0.00  0.00    +0.030 C 
ATOM      8  C   LIG    1       -4.192  -5.239  -1.577  0.00  0.00    +0.030 C 
ENDBRANCH   5   7
ENDBRANCH   3   5
ENDBRANCH   1   3
BRANCH   1   9
ATOM      9  C   LIG    1       -1.324  -0.322   0.900  0.00  0.00    +0.240 C 
BRANCH   9  11
ATOM     10  C   LIG    1        0.151   1.527   1.705  0.00  0.00    +0.060 C 
ATOM     11  C   LIG    1        0.114   0.066   1.251  0.00  0.00    +0.020 C 
ENDBRANCH   9  11
ENDBRANCH   1   9
BRANCH   1  12
ATOM     12  C   LIG    1       -0.857  -2.636   1.326  0.00  0.00    +0.240 C 
BRANCH  12  13
ATOM     13  C   LIG    1       -1.728  -2.549   2.581  0.00  0.00    -0.030 C 
ATOM     14  C   LIG    1       -0.917  -2.998   3.798  0.00  0.00    +0.070 C 
ATOM     15  C   LIG    1       -2.948  -3.458   2.418  0.00  0.00    +0.030 C 
ENDBRANCH  12  13
ENDBRANCH   1  12
TORSDOF 7
ENDMDL
MODEL      470
REMARK  Name = ZINC001191375458
REMARK                            x       y       z     vdW  Elec       q    Type
REMARK                         _______ _______ _______ _____ _____    ______ ____
ROOT
ATOM      1  N   LIG    1        1.304  -2.317  -2.850  0.00  0.00    -0.390 N 
ATOM      2  H   LIG    1        0.956  -1.800  -3.644  0.00  0.00    +0.420 HD
ENDROOT
BRANCH   1   3
ATOM      3  C   LIG    1        2.764  -2.180  -2.779  0.00  0.00    +0.240 C 
ATOM      4  C   LIG    1        3.138  -0.697  -2.764  0.00  0.00    +0.080 C 
ENDBRANCH   1   3
BRANCH   1   5
ATOM      5  C   LIG    1        0.702  -1.787  -1.620  0.00  0.00    +0.250 C 
BRANCH   5   6
ATOM      6  C   LIG    1       -0.822  -1.794  -1.753  0.00  0.00    -0.030 C 
ATOM      7  C   LIG    1       -1.242  -0.826  -2.862  0.00  0.00    +0.040 C 
BRANCH   6   9
ATOM      8  C   LIG    1       -2.974  -1.482  -0.522  0.00  0.00    +0.030 C 
ATOM      9  C   LIG    1       -1.452  -1.356  -0.429  0.00  0.00    +0.020 C 
ENDBRANCH   6   9
ENDBRANCH   5   6
ENDBRANCH   1   5
BRANCH   1  10
ATOM     10  C   LIG    1        0.951  -3.735  -2.996  0.00  0.00    +0.250 C 
BRANCH  10  11
ATOM     11  C   LIG    1        1.450  -4.249  -4.348  0.00  0.00    +0.040 C 
BRANCH  11  12
ATOM     12  C   LIG    1        0.964  -5.684  -4.561  0.00  0.00    -0.010 C 
ATOM     13  C   LIG    1       -0.428  -5.773  -5.208  0.00  0.00    +0.010 C 
ATOM     14  C   LIG    1        0.117  -6.952  -6.031  0.00  0.00    +0.010 C 
ATOM     15  C   LIG    1        1.514  -6.338  -5.839  0.00  0.00    +0.010 C 
ENDBRANCH  11  12
ENDBRANCH  10  11
ENDBRANCH   1  10
TORSDOF 7
ENDMDL
MODEL      471
REMARK  Name = ZINC001191409982
REMARK                            x       y       z     vdW  Elec       q    Type
REMARK                         _______ _______ _______ _____ _____    ______ ____
ROOT
ATOM      1  N   LIG    1        1.175  -2.088  -3.001  0.00  0.00    -0.380 N 
ATOM      2  C   LIG    1        2.606  -1.777  -2.897  0.00  0.00    +0.250 C 
ATOM      3  C   LIG    1        3.277  -1.984  -4.257  0.00  0.00    +0.050 C 
ATOM      4  C   LIG    1        3.100  -3.442  -4.690  0.00  0.00    +0.040 C 
ATOM      5  C   LIG    1        1.606  -3.777  -4.723  0.00  0.00    -0.020 C 
ATOM      6  C   LIG    1        0.999  -3.504  -3.345  0.00  0.00    +0.250 C 
ATOM      7  H   LIG    1        0.759  -1.514  -3.718  0.00  0.00    +0.420 HD
ENDROOT
BRANCH   5   8
ATOM      8  C   LIG    1        1.420  -5.253  -5.080  0.00  0.00    +0.020 C 
ATOM      9  C   LIG    1        1.921  -5.500  -6.505  0.00  0.00    +0.030 C 
ENDBRANCH   5   8
BRANCH   1  10
ATOM     10  C   LIG    1        0.522  -1.813  -1.714  0.00  0.00    +0.250 C 
BRANCH  10  11
ATOM     11  C   LIG    1        0.573  -0.311  -1.427  0.00  0.00    -0.020 C 
BRANCH  11  13
ATOM     12  C   LIG    1       -0.064   1.947  -2.284  0.00  0.00    +0.040 C 
ATOM     13  C   LIG    1       -0.218   0.440  -2.500  0.00  0.00    +0.000 C 
ENDBRANCH  11  13
BRANCH  11  14
ATOM     14  C   LIG    1       -0.041  -0.034  -0.053  0.00  0.00    +0.040 C 
ATOM     15  C   LIG    1        0.834  -0.662   1.033  0.00  0.00    +0.020 C 
ENDBRANCH  11  14
ENDBRANCH  10  11
ENDBRANCH   1  10
TORSDOF 5
ENDMDL
MODEL      472
REMARK  Name = ZINC001190651989
REMARK                            x       y       z     vdW  Elec       q    Type
REMARK                         _______ _______ _______ _____ _____    ______ ____
ROOT
ATOM      1  N   LIG    1       -1.290  -2.537  -0.129  0.00  0.00    -0.380 N 
ATOM      2  H   LIG    1       -0.637  -3.099  -0.654  0.00  0.00    +0.420 HD
ENDROOT
BRANCH   1   3
ATOM      3  C   LIG    1       -2.642  -3.092  -0.276  0.00  0.00    +0.160 C 
ATOM      4  C   LIG    1       -3.621  -2.283   0.576  0.00  0.00    +0.090 C 
BRANCH   3   5
ATOM      5  C   LIG    1       -2.648  -4.551   0.186  0.00  0.00    -0.020 C 
ATOM      6  C   LIG    1       -1.585  -5.335  -0.586  0.00  0.00    +0.030 C 
BRANCH   5   7
ATOM      7  C   LIG    1       -4.025  -5.164  -0.077  0.00  0.00    +0.030 C 
ATOM      8  C   LIG    1       -4.070  -6.581   0.498  0.00  0.00    +0.030 C 
ENDBRANCH   5   7
ENDBRANCH   3   5
ENDBRANCH   1   3
BRANCH   1   9
ATOM      9  C   LIG    1       -1.268  -1.159  -0.637  0.00  0.00    +0.240 C 
BRANCH   9  11
ATOM     10  C   LIG    1       -1.601   0.276  -2.655  0.00  0.00    +0.060 C 
ATOM     11  C   LIG    1       -1.578  -1.163  -2.135  0.00  0.00    +0.020 C 
ENDBRANCH   9  11
ENDBRANCH   1   9
BRANCH   1  12
ATOM     12  C   LIG    1       -0.910  -2.542   1.290  0.00  0.00    +0.240 C 
BRANCH  12  13
ATOM     13  C   LIG    1        0.544  -2.088   1.431  0.00  0.00    -0.020 C 
ATOM     14  C   LIG    1        1.190  -2.806   2.618  0.00  0.00    +0.070 C 
ATOM     15  C   LIG    1        0.586  -0.577   1.665  0.00  0.00    +0.040 C 
ENDBRANCH  12  13
ENDBRANCH   1  12
TORSDOF 7
ENDMDL
MODEL      473
REMARK  Name = ZINC001190651993
REMARK                            x       y       z     vdW  Elec       q    Type
REMARK                         _______ _______ _______ _____ _____    ______ ____
ROOT
ATOM      1  N   LIG    1       -1.524  -2.023  -0.115  0.00  0.00    -0.380 N 
ATOM      2  H   LIG    1       -0.986  -2.191  -0.951  0.00  0.00    +0.420 HD
ENDROOT
BRANCH   1   3
ATOM      3  C   LIG    1       -2.914  -2.445  -0.334  0.00  0.00    +0.160 C 
ATOM      4  C   LIG    1       -3.763  -2.053   0.877  0.00  0.00    +0.080 C 
BRANCH   3   5
ATOM      5  C   LIG    1       -3.464  -1.758  -1.586  0.00  0.00    -0.020 C 
ATOM      6  C   LIG    1       -2.629  -2.167  -2.801  0.00  0.00    +0.040 C 
BRANCH   5   7
ATOM      7  C   LIG    1       -4.919  -2.179  -1.802  0.00  0.00    +0.030 C 
ATOM      8  C   LIG    1       -5.507  -1.399  -2.979  0.00  0.00    +0.030 C 
ENDBRANCH   5   7
ENDBRANCH   3   5
ENDBRANCH   1   3
BRANCH   1   9
ATOM      9  C   LIG    1       -1.492  -0.591   0.208  0.00  0.00    +0.240 C 
BRANCH   9  11
ATOM     10  C   LIG    1       -0.006   1.397   0.496  0.00  0.00    +0.060 C 
ATOM     11  C   LIG    1       -0.039  -0.118   0.290  0.00  0.00    +0.020 C 
ENDBRANCH   9  11
ENDBRANCH   1   9
BRANCH   1  12
ATOM     12  C   LIG    1       -0.950  -2.789   0.999  0.00  0.00    +0.240 C 
BRANCH  12  13
ATOM     13  C   LIG    1       -0.864  -4.267   0.611  0.00  0.00    -0.030 C 
ATOM     14  C   LIG    1       -0.385  -5.083   1.814  0.00  0.00    +0.070 C 
ATOM     15  C   LIG    1        0.124  -4.434  -0.545  0.00  0.00    +0.030 C 
ENDBRANCH  12  13
ENDBRANCH   1  12
TORSDOF 7
ENDMDL
MODEL      474
REMARK  Name = ZINC001190965263
REMARK                            x       y       z     vdW  Elec       q    Type
REMARK                         _______ _______ _______ _____ _____    ______ ____
ROOT
ATOM      1  N   LIG    1        1.260  -2.186  -2.559  0.00  0.00    -0.380 N 
ATOM      2  C   LIG    1        2.662  -1.857  -2.465  0.00  0.00    +0.240 C 
ATOM      3  C   LIG    1        3.094  -1.247  -3.808  0.00  0.00    +0.050 C 
ATOM      4  C   LIG    1        3.432  -2.251  -4.810  0.00  0.00    +0.030 C 
ATOM      5  C   LIG    1        2.212  -3.149  -5.131  0.00  0.00    -0.030 C 
ATOM      6  C   LIG    1        2.011  -4.120  -3.998  0.00  0.00    +0.060 C 
ATOM      7  C   LIG    1        1.051  -3.606  -2.911  0.00  0.00    +0.250 C 
ATOM      8  H   LIG    1        0.833  -1.606  -3.266  0.00  0.00    +0.420 HD
ENDROOT
BRANCH   5   9
ATOM      9  C   LIG    1        2.467  -3.917  -6.429  0.00  0.00    +0.020 C 
ATOM     10  C   LIG    1        2.560  -2.931  -7.595  0.00  0.00    +0.020 C 
ENDBRANCH   5   9
BRANCH   1  11
ATOM     11  C   LIG    1        0.618  -1.914  -1.266  0.00  0.00    +0.250 C 
BRANCH  11  12
ATOM     12  C   LIG    1       -0.898  -2.072  -1.407  0.00  0.00    -0.030 C 
ATOM     13  C   LIG    1       -1.437  -0.998  -2.353  0.00  0.00    +0.040 C 
BRANCH  12  15
ATOM     14  C   LIG    1       -3.055  -2.201  -0.153  0.00  0.00    +0.030 C 
ATOM     15  C   LIG    1       -1.556  -1.920  -0.034  0.00  0.00    +0.020 C 
ENDBRANCH  12  15
ENDBRANCH  11  12
ENDBRANCH   1  11
TORSDOF 4
ENDMDL
MODEL      475
REMARK  Name = ZINC001191014042
REMARK                            x       y       z     vdW  Elec       q    Type
REMARK                         _______ _______ _______ _____ _____    ______ ____
ROOT
ATOM      1  N   LIG    1        4.248   0.047  -2.537  0.00  0.00    -0.390 N 
ATOM      2  C   LIG    1        5.011  -0.560  -1.425  0.00  0.00    +0.250 C 
ATOM      3  C   LIG    1        6.438  -0.764  -1.991  0.00  0.00    +0.080 C 
ATOM      4  C   LIG    1        6.139  -1.168  -3.459  0.00  0.00    +0.080 C 
ATOM      5  C   LIG    1        4.902  -0.319  -3.807  0.00  0.00    +0.050 C 
ATOM      6  C   LIG    1        5.332   0.948  -4.550  0.00  0.00    +0.100 C 
ATOM      7  C   LIG    1        3.939  -1.133  -4.673  0.00  0.00    +0.090 C 
ATOM      8  H   LIG    1        4.241   1.051  -2.435  0.00  0.00    +0.420 HD
ENDROOT
BRANCH   1   9
ATOM      9  C   LIG    1        2.870  -0.461  -2.526  0.00  0.00    +0.250 C 
BRANCH   9  10
ATOM     10  C   LIG    1        2.154   0.032  -1.268  0.00  0.00    +0.030 C 
BRANCH  10  11
ATOM     11  C   LIG    1        0.718  -0.497  -1.257  0.00  0.00    +0.030 C 
BRANCH  11  13
ATOM     12  C   LIG    1       -0.019   1.526   0.010  0.00  0.00    +0.020 C 
ATOM     13  C   LIG    1        0.002  -0.004   0.002  0.00  0.00    -0.070 C 
ATOM     14  C   LIG    1       -1.433  -0.534   0.013  0.00  0.00    +0.030 C 
ATOM     15  C   LIG    1        0.742  -0.511   1.242  0.00  0.00    +0.020 C 
ENDBRANCH  11  13
ENDBRANCH  10  11
ENDBRANCH   9  10
ENDBRANCH   1   9
TORSDOF 4
ENDMDL
MODEL      476
REMARK  Name = ZINC001191375459
REMARK                            x       y       z     vdW  Elec       q    Type
REMARK                         _______ _______ _______ _____ _____    ______ ____
ROOT
ATOM      1  N   LIG    1        1.606  -2.604  -2.506  0.00  0.00    -0.390 N 
ATOM      2  H   LIG    1        1.397  -2.351  -3.461  0.00  0.00    +0.420 HD
ENDROOT
BRANCH   1   3
ATOM      3  C   LIG    1        2.951  -2.128  -2.156  0.00  0.00    +0.240 C 
ATOM      4  C   LIG    1        3.959  -2.643  -3.187  0.00  0.00    +0.080 C 
ENDBRANCH   1   3
BRANCH   1   5
ATOM      5  C   LIG    1        0.620  -1.988  -1.609  0.00  0.00    +0.250 C 
BRANCH   5   6
ATOM      6  C   LIG    1        0.588  -0.477  -1.847  0.00  0.00    -0.030 C 
ATOM      7  C   LIG    1        0.081  -0.193  -3.262  0.00  0.00    +0.040 C 
BRANCH   6   9
ATOM      8  C   LIG    1       -0.282   1.701  -0.985  0.00  0.00    +0.030 C 
ATOM      9  C   LIG    1       -0.346   0.180  -0.829  0.00  0.00    +0.020 C 
ENDBRANCH   6   9
ENDBRANCH   5   6
ENDBRANCH   1   5
BRANCH   1  10
ATOM     10  C   LIG    1        1.552  -4.065  -2.364  0.00  0.00    +0.250 C 
BRANCH  10  11
ATOM     11  C   LIG    1        0.195  -4.575  -2.852  0.00  0.00    +0.040 C 
BRANCH  11  12
ATOM     12  C   LIG    1        0.182  -6.105  -2.819  0.00  0.00    -0.010 C 
ATOM     13  C   LIG    1       -0.252  -6.688  -1.464  0.00  0.00    +0.010 C 
ATOM     14  C   LIG    1       -1.036  -7.745  -2.259  0.00  0.00    +0.010 C 
ATOM     15  C   LIG    1       -1.097  -6.723  -3.406  0.00  0.00    +0.010 C 
ENDBRANCH  11  12
ENDBRANCH  10  11
ENDBRANCH   1  10
TORSDOF 7
ENDMDL
MODEL      477
REMARK  Name = ZINC001190651991
REMARK                            x       y       z     vdW  Elec       q    Type
REMARK                         _______ _______ _______ _____ _____    ______ ____
ROOT
ATOM      1  N   LIG    1       -0.982  -2.531  -0.033  0.00  0.00    -0.380 N 
ATOM      2  H   LIG    1       -0.304  -3.061  -0.560  0.00  0.00    +0.420 HD
ENDROOT
BRANCH   1   3
ATOM      3  C   LIG    1       -2.314  -3.123  -0.214  0.00  0.00    +0.160 C 
ATOM      4  C   LIG    1       -2.276  -4.599   0.188  0.00  0.00    +0.080 C 
BRANCH   3   5
ATOM      5  C   LIG    1       -2.730  -3.005  -1.682  0.00  0.00    -0.010 C 
ATOM      6  C   LIG    1       -1.762  -3.810  -2.552  0.00  0.00    +0.050 C 
BRANCH   5   7
ATOM      7  C   LIG    1       -4.148  -3.551  -1.856  0.00  0.00    +0.030 C 
ATOM      8  C   LIG    1       -4.610  -3.319  -3.296  0.00  0.00    +0.030 C 
ENDBRANCH   5   7
ENDBRANCH   3   5
ENDBRANCH   1   3
BRANCH   1   9
ATOM      9  C   LIG    1       -0.995  -1.142  -0.508  0.00  0.00    +0.230 C 
BRANCH   9  11
ATOM     10  C   LIG    1       -2.003   1.119  -0.166  0.00  0.00    +0.060 C 
ATOM     11  C   LIG    1       -2.062  -0.352   0.252  0.00  0.00    +0.030 C 
ENDBRANCH   9  11
ENDBRANCH   1   9
BRANCH   1  12
ATOM     12  C   LIG    1       -0.624  -2.558   1.392  0.00  0.00    +0.240 C 
BRANCH  12  13
ATOM     13  C   LIG    1        0.819  -2.079   1.564  0.00  0.00    -0.020 C 
ATOM     14  C   LIG    1        1.428  -2.732   2.807  0.00  0.00    +0.070 C 
ATOM     15  C   LIG    1        0.834  -0.558   1.727  0.00  0.00    +0.040 C 
ENDBRANCH  12  13
ENDBRANCH   1  12
TORSDOF 7
ENDMDL
MODEL      478
REMARK  Name = ZINC001191232806
REMARK                            x       y       z     vdW  Elec       q    Type
REMARK                         _______ _______ _______ _____ _____    ______ ____
ROOT
ATOM      1  C   LIG    1        0.567  -0.458   1.776  0.00  0.00    +0.250 C 
ENDROOT
BRANCH   1   2
ATOM      2  N   LIG    1        0.635  -1.896   1.484  0.00  0.00    -0.380 N 
ATOM      3  C   LIG    1        1.486  -2.118   0.308  0.00  0.00    +0.310 C 
ATOM      4  H   LIG    1       -0.293  -2.246   1.299  0.00  0.00    +0.420 HD
BRANCH   2   5
ATOM      5  C   LIG    1        1.203  -2.604   2.639  0.00  0.00    +0.150 C 
ATOM      6  C   LIG    1        0.174  -2.909   3.741  0.00  0.00    +0.050 C 
ATOM      7  C   LIG    1        0.862  -4.276   3.896  0.00  0.00    +0.070 C 
ATOM      8  C   LIG    1        1.317  -4.124   2.435  0.00  0.00    +0.050 C 
ENDBRANCH   2   5
ENDBRANCH   1   2
BRANCH   1  10
ATOM      9  C   LIG    1       -0.073   1.774   0.855  0.00  0.00    +0.050 C 
ATOM     10  C   LIG    1       -0.141   0.263   0.628  0.00  0.00    -0.020 C 
BRANCH  10  11
ATOM     11  C   LIG    1       -1.604  -0.180   0.573  0.00  0.00    +0.010 C 
BRANCH  11  12
ATOM     12  C   LIG    1       -2.195   0.179  -0.792  0.00  0.00    -0.070 C 
ATOM     13  C   LIG    1       -2.067   1.686  -1.023  0.00  0.00    +0.020 C 
ATOM     14  C   LIG    1       -3.671  -0.220  -0.830  0.00  0.00    +0.020 C 
ATOM     15  C   LIG    1       -1.436  -0.571  -1.889  0.00  0.00    +0.020 C 
ENDBRANCH  11  12
ENDBRANCH  10  11
ENDBRANCH   1  10
TORSDOF 5
ENDMDL
MODEL      479
REMARK  Name = ZINC001190965266
REMARK                            x       y       z     vdW  Elec       q    Type
REMARK                         _______ _______ _______ _____ _____    ______ ____
ROOT
ATOM      1  N   LIG    1        1.537  -2.492  -2.414  0.00  0.00    -0.380 N 
ATOM      2  C   LIG    1        2.913  -2.062  -2.369  0.00  0.00    +0.240 C 
ATOM      3  C   LIG    1        3.339  -1.693  -3.800  0.00  0.00    +0.050 C 
ATOM      4  C   LIG    1        3.761  -2.846  -4.587  0.00  0.00    +0.030 C 
ATOM      5  C   LIG    1        2.605  -3.865  -4.743  0.00  0.00    -0.030 C 
ATOM      6  C   LIG    1        2.438  -4.613  -3.448  0.00  0.00    +0.060 C 
ATOM      7  C   LIG    1        1.423  -3.965  -2.490  0.00  0.00    +0.250 C 
ATOM      8  H   LIG    1        1.092  -2.087  -3.224  0.00  0.00    +0.420 HD
ENDROOT
BRANCH   5   9
ATOM      9  C   LIG    1        2.937  -4.848  -5.867  0.00  0.00    +0.020 C 
ATOM     10  C   LIG    1        2.997  -4.099  -7.200  0.00  0.00    +0.020 C 
ENDBRANCH   5   9
BRANCH   1  11
ATOM     11  C   LIG    1        0.849  -2.021  -1.205  0.00  0.00    +0.250 C 
BRANCH  11  12
ATOM     12  C   LIG    1        0.808  -0.491  -1.205  0.00  0.00    -0.020 C 
ATOM     13  C   LIG    1       -0.060  -0.004  -2.366  0.00  0.00    +0.040 C 
BRANCH  12  15
ATOM     14  C   LIG    1        0.290   1.530   0.169  0.00  0.00    +0.030 C 
ATOM     15  C   LIG    1        0.217   0.003   0.117  0.00  0.00    +0.020 C 
ENDBRANCH  12  15
ENDBRANCH  11  12
ENDBRANCH   1  11
TORSDOF 4
ENDMDL
MODEL      480
REMARK  Name = ZINC001191409984
REMARK                            x       y       z     vdW  Elec       q    Type
REMARK                         _______ _______ _______ _____ _____    ______ ____
ROOT
ATOM      1  N   LIG    1        1.174  -2.088  -3.001  0.00  0.00    -0.380 N 
ATOM      2  C   LIG    1        2.605  -1.777  -2.898  0.00  0.00    +0.250 C 
ATOM      3  C   LIG    1        3.275  -1.984  -4.258  0.00  0.00    +0.050 C 
ATOM      4  C   LIG    1        3.098  -3.442  -4.691  0.00  0.00    +0.040 C 
ATOM      5  C   LIG    1        1.604  -3.776  -4.724  0.00  0.00    +0.010 C 
ATOM      6  C   LIG    1        0.997  -3.503  -3.346  0.00  0.00    +0.260 C 
ATOM      7  H   LIG    1        0.757  -1.513  -3.718  0.00  0.00    +0.420 HD
ENDROOT
BRANCH   5   8
ATOM      8  C   LIG    1        0.908  -2.906  -5.772  0.00  0.00    -0.000 C 
ATOM      9  C   LIG    1        1.433  -3.267  -7.164  0.00  0.00    +0.030 C 
ENDBRANCH   5   8
BRANCH   1  10
ATOM     10  C   LIG    1        0.521  -1.813  -1.714  0.00  0.00    +0.250 C 
BRANCH  10  11
ATOM     11  C   LIG    1        0.572  -0.311  -1.427  0.00  0.00    -0.020 C 
BRANCH  11  13
ATOM     12  C   LIG    1       -0.065   1.948  -2.284  0.00  0.00    +0.040 C 
ATOM     13  C   LIG    1       -0.219   0.441  -2.499  0.00  0.00    +0.000 C 
ENDBRANCH  11  13
BRANCH  11  14
ATOM     14  C   LIG    1       -0.041  -0.034  -0.053  0.00  0.00    +0.040 C 
ATOM     15  C   LIG    1        0.835  -0.662   1.033  0.00  0.00    +0.020 C 
ENDBRANCH  11  14
ENDBRANCH  10  11
ENDBRANCH   1  10
TORSDOF 5
ENDMDL
MODEL      481
REMARK  Name = ZINC001190965268
REMARK                            x       y       z     vdW  Elec       q    Type
REMARK                         _______ _______ _______ _____ _____    ______ ____
ROOT
ATOM      1  N   LIG    1        1.641  -2.484  -2.353  0.00  0.00    -0.380 N 
ATOM      2  C   LIG    1        2.998  -2.001  -2.239  0.00  0.00    +0.240 C 
ATOM      3  C   LIG    1        3.576  -1.632  -3.616  0.00  0.00    +0.060 C 
ATOM      4  C   LIG    1        3.196  -2.647  -4.712  0.00  0.00    +0.020 C 
ATOM      5  C   LIG    1        3.291  -4.079  -4.256  0.00  0.00    -0.020 C 
ATOM      6  C   LIG    1        1.921  -4.526  -3.689  0.00  0.00    +0.060 C 
ATOM      7  C   LIG    1        1.689  -3.956  -2.365  0.00  0.00    +0.260 C 
ATOM      8  H   LIG    1        1.229  -2.147  -3.210  0.00  0.00    +0.420 HD
ENDROOT
BRANCH   5   9
ATOM      9  C   LIG    1        3.669  -4.969  -5.441  0.00  0.00    +0.020 C 
ATOM     10  C   LIG    1        5.074  -4.605  -5.925  0.00  0.00    +0.020 C 
ENDBRANCH   5   9
BRANCH   1  11
ATOM     11  C   LIG    1        0.849  -2.021  -1.205  0.00  0.00    +0.250 C 
BRANCH  11  12
ATOM     12  C   LIG    1        0.718  -0.497  -1.257  0.00  0.00    -0.030 C 
ATOM     13  C   LIG    1       -0.089  -0.097  -2.493  0.00  0.00    +0.040 C 
BRANCH  12  15
ATOM     14  C   LIG    1       -0.019   1.526   0.010  0.00  0.00    +0.030 C 
ATOM     15  C   LIG    1        0.002  -0.004   0.002  0.00  0.00    +0.020 C 
ENDBRANCH  12  15
ENDBRANCH  11  12
ENDBRANCH   1  11
TORSDOF 4
ENDMDL
MODEL      482
REMARK  Name = ZINC001191232808
REMARK                            x       y       z     vdW  Elec       q    Type
REMARK                         _______ _______ _______ _____ _____    ______ ____
ROOT
ATOM      1  C   LIG    1       -1.446  -0.851   1.449  0.00  0.00    +0.250 C 
ENDROOT
BRANCH   1   2
ATOM      2  N   LIG    1       -2.612  -0.531   0.614  0.00  0.00    -0.380 N 
ATOM      3  C   LIG    1       -2.409  -1.071  -0.737  0.00  0.00    +0.310 C 
ATOM      4  H   LIG    1       -2.725   0.470   0.563  0.00  0.00    +0.420 HD
BRANCH   2   5
ATOM      5  C   LIG    1       -3.817  -1.130   1.205  0.00  0.00    +0.150 C 
ATOM      6  C   LIG    1       -4.434  -0.286   2.333  0.00  0.00    +0.050 C 
ATOM      7  C   LIG    1       -5.808  -0.660   1.753  0.00  0.00    +0.060 C 
ATOM      8  C   LIG    1       -5.099  -0.853   0.402  0.00  0.00    +0.050 C 
ENDBRANCH   2   5
ENDBRANCH   1   2
BRANCH   1  10
ATOM      9  C   LIG    1       -0.410   1.386   1.043  0.00  0.00    +0.040 C 
ATOM     10  C   LIG    1       -0.214  -0.125   0.905  0.00  0.00    -0.020 C 
BRANCH  10  11
ATOM     11  C   LIG    1        1.022  -0.554   1.697  0.00  0.00    +0.050 C 
BRANCH  11  12
ATOM     12  C   LIG    1        2.276   0.021   1.036  0.00  0.00    -0.070 C 
ATOM     13  C   LIG    1        2.293  -0.361  -0.445  0.00  0.00    +0.020 C 
ATOM     14  C   LIG    1        3.520  -0.545   1.724  0.00  0.00    +0.030 C 
ATOM     15  C   LIG    1        2.269   1.545   1.170  0.00  0.00    +0.020 C 
ENDBRANCH  11  12
ENDBRANCH  10  11
ENDBRANCH   1  10
TORSDOF 5
ENDMDL
MODEL      483
REMARK  Name = ZINC001190965265
REMARK                            x       y       z     vdW  Elec       q    Type
REMARK                         _______ _______ _______ _____ _____    ______ ____
ROOT
ATOM      1  N   LIG    1        1.304  -2.471  -2.506  0.00  0.00    -0.380 N 
ATOM      2  C   LIG    1        2.734  -2.314  -2.369  0.00  0.00    +0.240 C 
ATOM      3  C   LIG    1        3.388  -1.948  -3.712  0.00  0.00    +0.060 C 
ATOM      4  C   LIG    1        2.796  -2.738  -4.896  0.00  0.00    +0.020 C 
ATOM      5  C   LIG    1        2.568  -4.194  -4.585  0.00  0.00    -0.020 C 
ATOM      6  C   LIG    1        1.131  -4.380  -4.042  0.00  0.00    +0.060 C 
ATOM      7  C   LIG    1        1.024  -3.908  -2.665  0.00  0.00    +0.260 C 
ATOM      8  H   LIG    1        0.982  -1.967  -3.319  0.00  0.00    +0.420 HD
ENDROOT
BRANCH   5   9
ATOM      9  C   LIG    1        2.745  -5.023  -5.859  0.00  0.00    +0.020 C 
ATOM     10  C   LIG    1        4.199  -4.932  -6.329  0.00  0.00    +0.020 C 
ENDBRANCH   5   9
BRANCH   1  11
ATOM     11  C   LIG    1        0.630  -1.961  -1.305  0.00  0.00    +0.250 C 
BRANCH  11  12
ATOM     12  C   LIG    1        0.795  -0.442  -1.233  0.00  0.00    -0.030 C 
ATOM     13  C   LIG    1        0.215   0.073   0.086  0.00  0.00    +0.070 C 
BRANCH  12  15
ATOM     14  C   LIG    1        0.323   1.714  -2.404  0.00  0.00    +0.040 C 
ATOM     15  C   LIG    1        0.055   0.208  -2.404  0.00  0.00    +0.000 C 
ENDBRANCH  12  15
ENDBRANCH  11  12
ENDBRANCH   1  11
TORSDOF 4
ENDMDL
MODEL      484
REMARK  Name = ZINC001192645030
REMARK                            x       y       z     vdW  Elec       q    Type
REMARK                         _______ _______ _______ _____ _____    ______ ____
ROOT
ATOM      1  C   LIG    1        0.742  -0.511   1.242  0.00  0.00    +0.160 C 
ATOM      2  C   LIG    1        0.840  -2.050   1.201  0.00  0.00    +0.070 C 
ATOM      3  C   LIG    1       -0.348  -2.500   2.091  0.00  0.00    +0.080 C 
ATOM      4  C   LIG    1       -0.360  -1.396   3.178  0.00  0.00    +0.160 C 
ATOM      5  C   LIG    1       -1.752  -1.279   3.803  0.00  0.00    +0.090 C 
ATOM      6  N   LIG    1       -0.010  -0.149   2.457  0.00  0.00    -0.390 N 
ATOM      7  H   LIG    1       -0.852   0.344   2.201  0.00  0.00    +0.420 HD
ENDROOT
BRANCH   1   9
ATOM      8  C   LIG    1       -0.019   1.526   0.010  0.00  0.00    +0.030 C 
ATOM      9  C   LIG    1        0.002  -0.004   0.002  0.00  0.00    +0.060 C 
ENDBRANCH   1   9
BRANCH   6  10
ATOM     10  C   LIG    1        0.821   0.703   3.319  0.00  0.00    +0.250 C 
BRANCH  10  11
ATOM     11  C   LIG    1       -0.009   1.184   4.512  0.00  0.00    +0.040 C 
BRANCH  11  12
ATOM     12  C   LIG    1        0.856   2.071   5.409  0.00  0.00    -0.060 C 
ATOM     13  C   LIG    1        2.058   1.270   5.913  0.00  0.00    +0.030 C 
ATOM     14  C   LIG    1        0.027   2.552   6.602  0.00  0.00    +0.040 C 
ATOM     15  C   LIG    1        1.348   3.280   4.609  0.00  0.00    +0.030 C 
ENDBRANCH  11  12
ENDBRANCH  10  11
ENDBRANCH   6  10
TORSDOF 4
ENDMDL
MODEL      485
REMARK  Name = ZINC001192526485
REMARK                            x       y       z     vdW  Elec       q    Type
REMARK                         _______ _______ _______ _____ _____    ______ ____
ROOT
ATOM      1  N   LIG    1        0.621  -1.927  -1.315  0.00  0.00    -0.360 N 
ATOM      2  H   LIG    1        1.189  -2.330  -0.584  0.00  0.00    +0.420 HD
ENDROOT
BRANCH   1   3
ATOM      3  C   LIG    1        0.749  -0.464  -1.283  0.00  0.00    +0.090 C 
ATOM      4  C   LIG    1        1.380   0.163  -0.038  0.00  0.00    +0.100 C 
ATOM      5  C   LIG    1        2.159   0.124  -1.355  0.00  0.00    +0.090 C 
ENDBRANCH   1   3
BRANCH   1   6
ATOM      6  C   LIG    1       -0.784  -2.301  -1.106  0.00  0.00    +0.250 C 
BRANCH   6   8
ATOM      7  C   LIG    1       -2.681  -2.277   0.520  0.00  0.00    +0.060 C 
ATOM      8  C   LIG    1       -1.218  -1.888   0.302  0.00  0.00    +0.020 C 
ENDBRANCH   6   8
ENDBRANCH   1   6
BRANCH   1   9
ATOM      9  C   LIG    1        1.073  -2.429  -2.619  0.00  0.00    +0.250 C 
BRANCH   9  10
ATOM     10  C   LIG    1        1.086  -3.959  -2.600  0.00  0.00    -0.020 C 
ATOM     11  C   LIG    1        2.136  -4.448  -1.601  0.00  0.00    +0.040 C 
BRANCH  10  12
ATOM     12  C   LIG    1        1.427  -4.484  -3.996  0.00  0.00    +0.040 C 
BRANCH  12  13
ATOM     13  C   LIG    1        1.318  -6.010  -4.008  0.00  0.00    -0.020 C 
ATOM     14  C   LIG    1        1.779  -6.543  -5.366  0.00  0.00    +0.030 C 
ATOM     15  C   LIG    1       -0.136  -6.419  -3.767  0.00  0.00    +0.020 C 
ENDBRANCH  12  13
ENDBRANCH  10  12
ENDBRANCH   9  10
ENDBRANCH   1   9
TORSDOF 7
ENDMDL
MODEL      486
REMARK  Name = ZINC001192526486
REMARK                            x       y       z     vdW  Elec       q    Type
REMARK                         _______ _______ _______ _____ _____    ______ ____
ROOT
ATOM      1  N   LIG    1        0.605  -1.867  -1.373  0.00  0.00    -0.360 N 
ATOM      2  H   LIG    1       -0.248  -2.308  -1.683  0.00  0.00    +0.420 HD
ENDROOT
BRANCH   1   3
ATOM      3  C   LIG    1        1.004  -2.432  -0.077  0.00  0.00    +0.090 C 
ATOM      4  C   LIG    1       -0.066  -3.167   0.733  0.00  0.00    +0.100 C 
ATOM      5  C   LIG    1        1.049  -3.957   0.045  0.00  0.00    +0.090 C 
ENDBRANCH   1   3
BRANCH   1   6
ATOM      6  C   LIG    1        0.386  -0.422  -1.230  0.00  0.00    +0.250 C 
BRANCH   6   8
ATOM      7  C   LIG    1       -1.031   1.330  -0.149  0.00  0.00    +0.060 C 
ATOM      8  C   LIG    1       -0.802  -0.175  -0.298  0.00  0.00    +0.020 C 
ENDBRANCH   6   8
ENDBRANCH   1   6
BRANCH   1   9
ATOM      9  C   LIG    1        1.666  -2.106  -2.360  0.00  0.00    +0.260 C 
BRANCH   9  10
ATOM     10  C   LIG    1        1.769  -3.606  -2.645  0.00  0.00    -0.020 C 
ATOM     11  C   LIG    1        0.414  -4.126  -3.131  0.00  0.00    +0.030 C 
BRANCH  10  12
ATOM     12  C   LIG    1        2.825  -3.849  -3.725  0.00  0.00    +0.030 C 
BRANCH  12  13
ATOM     13  C   LIG    1        3.037  -5.353  -3.903  0.00  0.00    -0.020 C 
ATOM     14  C   LIG    1        3.651  -5.936  -2.628  0.00  0.00    +0.020 C 
ATOM     15  C   LIG    1        3.979  -5.600  -5.082  0.00  0.00    +0.030 C 
ENDBRANCH  12  13
ENDBRANCH  10  12
ENDBRANCH   9  10
ENDBRANCH   1   9
TORSDOF 7
ENDMDL
MODEL      487
REMARK  Name = ZINC001192645028
REMARK                            x       y       z     vdW  Elec       q    Type
REMARK                         _______ _______ _______ _____ _____    ______ ____
ROOT
ATOM      1  C   LIG    1        1.343  -0.908   1.454  0.00  0.00    +0.160 C 
ATOM      2  C   LIG    1        2.093  -2.235   1.730  0.00  0.00    +0.080 C 
ATOM      3  C   LIG    1        3.405  -1.724   2.381  0.00  0.00    +0.070 C 
ATOM      4  C   LIG    1        3.682  -0.410   1.619  0.00  0.00    +0.160 C 
ATOM      5  C   LIG    1        4.688  -0.663   0.494  0.00  0.00    +0.080 C 
ATOM      6  N   LIG    1        2.397   0.049   1.057  0.00  0.00    -0.380 N 
ATOM      7  H   LIG    1        2.179   0.967   1.415  0.00  0.00    +0.420 HD
ENDROOT
BRANCH   1   9
ATOM      8  C   LIG    1       -0.736  -0.003   0.404  0.00  0.00    +0.040 C 
ATOM      9  C   LIG    1        0.335  -1.092   0.318  0.00  0.00    +0.050 C 
ENDBRANCH   1   9
BRANCH   6  10
ATOM     10  C   LIG    1        2.488   0.098  -0.408  0.00  0.00    +0.240 C 
BRANCH  10  11
ATOM     11  C   LIG    1        1.495   1.130  -0.946  0.00  0.00    +0.030 C 
BRANCH  11  12
ATOM     12  C   LIG    1        1.694   1.291  -2.455  0.00  0.00    -0.060 C 
ATOM     13  C   LIG    1        3.123   1.763  -2.733  0.00  0.00    +0.030 C 
ATOM     14  C   LIG    1        0.702   2.323  -2.993  0.00  0.00    +0.040 C 
ATOM     15  C   LIG    1        1.458  -0.053  -3.147  0.00  0.00    +0.020 C 
ENDBRANCH  11  12
ENDBRANCH  10  11
ENDBRANCH   6  10
TORSDOF 4
ENDMDL
MODEL      488
REMARK  Name = ZINC001192645031
REMARK                            x       y       z     vdW  Elec       q    Type
REMARK                         _______ _______ _______ _____ _____    ______ ____
ROOT
ATOM      1  C   LIG    1        0.705  -0.343   1.322  0.00  0.00    +0.160 C 
ATOM      2  C   LIG    1        0.723  -1.883   1.421  0.00  0.00    +0.070 C 
ATOM      3  C   LIG    1        2.136  -2.180   1.989  0.00  0.00    +0.080 C 
ATOM      4  C   LIG    1        2.986  -1.082   1.304  0.00  0.00    +0.160 C 
ATOM      5  C   LIG    1        4.244  -0.793   2.124  0.00  0.00    +0.100 C 
ATOM      6  N   LIG    1        2.107   0.111   1.269  0.00  0.00    -0.390 N 
ATOM      7  H   LIG    1        2.306   0.702   2.062  0.00  0.00    +0.420 HD
ENDROOT
BRANCH   1   9
ATOM      8  C   LIG    1       -1.497  -0.335   0.143  0.00  0.00    +0.060 C 
ATOM      9  C   LIG    1       -0.030   0.088   0.051  0.00  0.00    +0.040 C 
ENDBRANCH   1   9
BRANCH   6  10
ATOM     10  C   LIG    1        2.335   0.857   0.024  0.00  0.00    +0.240 C 
BRANCH  10  11
ATOM     11  C   LIG    1        3.770   1.389   0.004  0.00  0.00    +0.040 C 
BRANCH  11  12
ATOM     12  C   LIG    1        4.007   2.166  -1.292  0.00  0.00    -0.060 C 
ATOM     13  C   LIG    1        3.790   1.238  -2.490  0.00  0.00    +0.030 C 
ATOM     14  C   LIG    1        5.441   2.697  -1.313  0.00  0.00    +0.040 C 
ATOM     15  C   LIG    1        3.027   3.338  -1.371  0.00  0.00    +0.030 C 
ENDBRANCH  11  12
ENDBRANCH  10  11
ENDBRANCH   6  10
TORSDOF 4
ENDMDL
MODEL      489
REMARK  Name = ZINC001192645032
REMARK                            x       y       z     vdW  Elec       q    Type
REMARK                         _______ _______ _______ _____ _____    ______ ____
ROOT
ATOM      1  C   LIG    1        0.407  -0.340   1.200  0.00  0.00    +0.160 C 
ATOM      2  C   LIG    1        0.499  -1.870   1.019  0.00  0.00    +0.070 C 
ATOM      3  C   LIG    1        0.536  -2.393   2.479  0.00  0.00    +0.080 C 
ATOM      4  C   LIG    1       -0.408  -1.393   3.193  0.00  0.00    +0.160 C 
ATOM      5  C   LIG    1       -0.082  -1.327   4.687  0.00  0.00    +0.080 C 
ATOM      6  N   LIG    1       -0.137  -0.088   2.547  0.00  0.00    -0.390 N 
ATOM      7  H   LIG    1       -0.994   0.440   2.474  0.00  0.00    +0.420 HD
ENDROOT
BRANCH   1   9
ATOM      8  C   LIG    1       -0.547   1.777   0.279  0.00  0.00    +0.020 C 
ATOM      9  C   LIG    1       -0.526   0.254   0.143  0.00  0.00    +0.060 C 
ENDBRANCH   1   9
BRANCH   6  10
ATOM     10  C   LIG    1        0.842   0.664   3.344  0.00  0.00    +0.250 C 
BRANCH  10  11
ATOM     11  C   LIG    1        1.042   2.051   2.730  0.00  0.00    +0.040 C 
BRANCH  11  12
ATOM     12  C   LIG    1        2.023   2.852   3.588  0.00  0.00    -0.060 C 
ATOM     13  C   LIG    1        1.463   2.997   5.004  0.00  0.00    +0.030 C 
ATOM     14  C   LIG    1        2.223   4.239   2.974  0.00  0.00    +0.040 C 
ATOM     15  C   LIG    1        3.366   2.121   3.644  0.00  0.00    +0.030 C 
ENDBRANCH  11  12
ENDBRANCH  10  11
ENDBRANCH   6  10
TORSDOF 4
ENDMDL
MODEL      490
REMARK  Name = ZINC000069950181
REMARK                            x       y       z     vdW  Elec       q    Type
REMARK                         _______ _______ _______ _____ _____    ______ ____
ROOT
ATOM      1  N   LIG    1        2.232  -4.563   3.651  0.00  0.00    -0.400 N 
ATOM      2  C   LIG    1        3.557  -4.901   3.725  0.00  0.00    +0.240 A 
ATOM      3  C   LIG    1        3.789  -5.292   4.992  0.00  0.00    +0.230 A 
ATOM      4  N   LIG    1        2.638  -5.196   5.674  0.00  0.00    -0.480 N 
ATOM      5  H   LIG    1        2.520  -5.415   6.611  0.00  0.00    +0.460 HD
ATOM      6  C   LIG    1        1.702  -4.755   4.878  0.00  0.00    +0.320 A 
ENDROOT
BRANCH   6   7
ATOM      7  C   LIG    1        0.266  -4.509   5.263  0.00  0.00    +0.080 C 
ATOM      8  C   LIG    1        0.133  -3.112   5.874  0.00  0.00    +0.070 C 
ATOM      9  C   LIG    1       -0.175  -5.557   6.286  0.00  0.00    +0.080 C 
ENDBRANCH   6   7
BRANCH   1  10
ATOM     10  C   LIG    1        1.524  -4.077   2.464  0.00  0.00    +0.340 C 
BRANCH  10  11
ATOM     11  C   LIG    1        1.503  -2.548   2.473  0.00  0.00    +0.020 C 
BRANCH  11  12
ATOM     12  C   LIG    1        0.763  -2.041   1.233  0.00  0.00    +0.020 C 
BRANCH  12  13
ATOM     13  C   LIG    1        0.742  -0.511   1.242  0.00  0.00    +0.000 C 
BRANCH  13  15
ATOM     14  C   LIG    1       -0.019   1.526   0.010  0.00  0.00    +0.000 C 
ATOM     15  C   LIG    1        0.002  -0.004   0.002  0.00  0.00    -0.010 C 
ENDBRANCH  13  15
ENDBRANCH  12  13
ENDBRANCH  11  12
ENDBRANCH  10  11
ENDBRANCH   1  10
TORSDOF 6
ENDMDL
MODEL      491
REMARK  Name = ZINC001193672896
REMARK                            x       y       z     vdW  Elec       q    Type
REMARK                         _______ _______ _______ _____ _____    ______ ____
ROOT
ATOM      1  C   LIG    1        0.742  -0.511   1.242  0.00  0.00    +0.170 C 
ATOM      2  C   LIG    1        0.839  -2.047   1.203  0.00  0.00    +0.010 C 
ATOM      3  C   LIG    1        0.122  -2.529   2.485  0.00  0.00    +0.080 C 
ATOM      4  C   LIG    1        0.182  -1.284   3.405  0.00  0.00    +0.250 C 
ATOM      5  C   LIG    1        0.133  -2.593  -0.040  0.00  0.00    +0.060 C 
ATOM      6  N   LIG    1       -0.012  -0.150   2.461  0.00  0.00    -0.390 N 
ATOM      7  H   LIG    1       -0.992  -0.043   2.243  0.00  0.00    +0.420 HD
ENDROOT
BRANCH   1   9
ATOM      8  C   LIG    1       -0.019   1.526   0.010  0.00  0.00    +0.020 C 
ATOM      9  C   LIG    1        0.002  -0.004   0.002  0.00  0.00    +0.050 C 
ENDBRANCH   1   9
BRANCH   6  10
ATOM     10  C   LIG    1        0.516   1.091   3.045  0.00  0.00    +0.250 C 
BRANCH  10  11
ATOM     11  C   LIG    1       -0.324   1.480   4.263  0.00  0.00    +0.030 C 
BRANCH  11  12
ATOM     12  C   LIG    1        0.226   2.772   4.870  0.00  0.00    +0.030 C 
BRANCH  12  13
ATOM     13  C   LIG    1       -0.614   3.161   6.088  0.00  0.00    -0.030 C 
ATOM     14  C   LIG    1       -2.038   3.498   5.639  0.00  0.00    +0.020 C 
ATOM     15  C   LIG    1        0.009   4.381   6.769  0.00  0.00    +0.030 C 
ENDBRANCH  12  13
ENDBRANCH  11  12
ENDBRANCH  10  11
ENDBRANCH   6  10
TORSDOF 5
ENDMDL
MODEL      492
REMARK  Name = ZINC001193603590
REMARK                            x       y       z     vdW  Elec       q    Type
REMARK                         _______ _______ _______ _____ _____    ______ ____
ROOT
ATOM      1  N   LIG    1       -2.937  -2.297   0.399  0.00  0.00    -0.390 N 
ATOM      2  C   LIG    1       -3.597  -2.034  -0.897  0.00  0.00    +0.240 C 
ATOM      3  C   LIG    1       -3.511  -3.377  -1.665  0.00  0.00    +0.080 C 
ATOM      4  C   LIG    1       -3.720  -4.404  -0.521  0.00  0.00    +0.010 C 
ATOM      5  C   LIG    1       -3.005  -3.744   0.672  0.00  0.00    +0.160 C 
ATOM      6  C   LIG    1       -1.593  -4.317   0.815  0.00  0.00    +0.090 C 
ATOM      7  H   LIG    1       -3.412  -1.791   1.131  0.00  0.00    +0.420 HD
ENDROOT
BRANCH   4   8
ATOM      8  C   LIG    1       -3.070  -5.744  -0.873  0.00  0.00    +0.040 C 
ATOM      9  C   LIG    1       -3.804  -6.372  -2.059  0.00  0.00    +0.030 C 
ENDBRANCH   4   8
BRANCH   1  10
ATOM     10  C   LIG    1       -1.532  -1.871   0.335  0.00  0.00    +0.240 C 
BRANCH  10  11
ATOM     11  C   LIG    1       -1.466  -0.349   0.193  0.00  0.00    -0.020 C 
BRANCH  11  13
ATOM     12  C   LIG    1       -2.113   1.822   1.245  0.00  0.00    +0.040 C 
ATOM     13  C   LIG    1       -2.065   0.305   1.440  0.00  0.00    +0.000 C 
ENDBRANCH  11  13
BRANCH  11  14
ATOM     14  C   LIG    1       -0.008   0.086   0.038  0.00  0.00    +0.040 C 
ATOM     15  C   LIG    1        0.545  -0.446  -1.285  0.00  0.00    +0.020 C 
ENDBRANCH  11  14
ENDBRANCH  10  11
ENDBRANCH   1  10
TORSDOF 5
ENDMDL
MODEL      493
REMARK  Name = ZINC001193672898
REMARK                            x       y       z     vdW  Elec       q    Type
REMARK                         _______ _______ _______ _____ _____    ______ ____
ROOT
ATOM      1  C   LIG    1        0.742  -0.511   1.242  0.00  0.00    +0.160 C 
ATOM      2  C   LIG    1        0.840  -2.050   1.201  0.00  0.00    +0.010 C 
ATOM      3  C   LIG    1        0.631  -2.453   2.685  0.00  0.00    +0.080 C 
ATOM      4  C   LIG    1       -0.402  -1.398   3.153  0.00  0.00    +0.260 C 
ATOM      5  C   LIG    1        2.219  -2.492   0.706  0.00  0.00    +0.070 C 
ATOM      6  N   LIG    1       -0.010  -0.149   2.457  0.00  0.00    -0.390 N 
ATOM      7  H   LIG    1       -0.836   0.372   2.203  0.00  0.00    +0.420 HD
ENDROOT
BRANCH   1   9
ATOM      8  C   LIG    1       -0.019   1.526   0.010  0.00  0.00    +0.030 C 
ATOM      9  C   LIG    1        0.002  -0.004   0.002  0.00  0.00    +0.060 C 
ENDBRANCH   1   9
BRANCH   6  10
ATOM     10  C   LIG    1        0.837   0.664   3.341  0.00  0.00    +0.250 C 
BRANCH  10  11
ATOM     11  C   LIG    1        0.011   1.147   4.535  0.00  0.00    +0.030 C 
BRANCH  11  12
ATOM     12  C   LIG    1        0.893   1.994   5.455  0.00  0.00    +0.030 C 
BRANCH  12  13
ATOM     13  C   LIG    1        0.068   2.477   6.649  0.00  0.00    -0.030 C 
ATOM     14  C   LIG    1       -1.032   3.422   6.160  0.00  0.00    +0.020 C 
ATOM     15  C   LIG    1        0.977   3.218   7.631  0.00  0.00    +0.030 C 
ENDBRANCH  12  13
ENDBRANCH  11  12
ENDBRANCH  10  11
ENDBRANCH   6  10
TORSDOF 5
ENDMDL
MODEL      494
REMARK  Name = ZINC001193603572
REMARK                            x       y       z     vdW  Elec       q    Type
REMARK                         _______ _______ _______ _____ _____    ______ ____
ROOT
ATOM      1  N   LIG    1       -3.000  -2.277   0.324  0.00  0.00    -0.390 N 
ATOM      2  C   LIG    1       -3.615  -2.079  -1.013  0.00  0.00    +0.250 C 
ATOM      3  C   LIG    1       -4.813  -3.061  -1.002  0.00  0.00    +0.080 C 
ATOM      4  C   LIG    1       -4.253  -4.280  -0.234  0.00  0.00    +0.010 C 
ATOM      5  C   LIG    1       -3.075  -3.729   0.593  0.00  0.00    +0.170 C 
ATOM      6  C   LIG    1       -3.322  -3.978   2.082  0.00  0.00    +0.090 C 
ATOM      7  H   LIG    1       -3.517  -1.766   1.024  0.00  0.00    +0.420 HD
ENDROOT
BRANCH   4   8
ATOM      8  C   LIG    1       -5.324  -4.864   0.690  0.00  0.00    +0.030 C 
ATOM      9  C   LIG    1       -6.457  -5.454  -0.152  0.00  0.00    +0.030 C 
ENDBRANCH   4   8
BRANCH   1  10
ATOM     10  C   LIG    1       -1.598  -1.837   0.307  0.00  0.00    +0.250 C 
BRANCH  10  11
ATOM     11  C   LIG    1       -1.544  -0.314   0.166  0.00  0.00    -0.020 C 
BRANCH  11  13
ATOM     12  C   LIG    1       -2.249   1.852   1.193  0.00  0.00    +0.040 C 
ATOM     13  C   LIG    1       -2.191   0.336   1.390  0.00  0.00    +0.000 C 
ENDBRANCH  11  13
BRANCH  11  14
ATOM     14  C   LIG    1       -0.086   0.136   0.061  0.00  0.00    +0.040 C 
ATOM     15  C   LIG    1        0.517  -0.388  -1.244  0.00  0.00    +0.020 C 
ENDBRANCH  11  14
ENDBRANCH  10  11
ENDBRANCH   1  10
TORSDOF 5
ENDMDL
MODEL      495
REMARK  Name = ZINC001193672897
REMARK                            x       y       z     vdW  Elec       q    Type
REMARK                         _______ _______ _______ _____ _____    ______ ____
ROOT
ATOM      1  C   LIG    1        0.704  -0.340   1.324  0.00  0.00    +0.160 C 
ATOM      2  C   LIG    1        0.719  -1.880   1.422  0.00  0.00    +0.010 C 
ATOM      3  C   LIG    1        2.132  -2.181   1.988  0.00  0.00    +0.080 C 
ATOM      4  C   LIG    1        2.984  -1.084   1.302  0.00  0.00    +0.250 C 
ATOM      5  C   LIG    1       -0.367  -2.371   2.381  0.00  0.00    +0.060 C 
ATOM      6  N   LIG    1        2.107   0.111   1.269  0.00  0.00    -0.390 N 
ATOM      7  H   LIG    1        2.308   0.702   2.062  0.00  0.00    +0.420 HD
ENDROOT
BRANCH   1   9
ATOM      8  C   LIG    1       -1.500  -0.325   0.148  0.00  0.00    +0.060 C 
ATOM      9  C   LIG    1       -0.031   0.093   0.054  0.00  0.00    +0.040 C 
ENDBRANCH   1   9
BRANCH   6  10
ATOM     10  C   LIG    1        2.335   0.857   0.024  0.00  0.00    +0.240 C 
BRANCH  10  11
ATOM     11  C   LIG    1        3.770   1.389   0.004  0.00  0.00    +0.020 C 
BRANCH  11  12
ATOM     12  C   LIG    1        4.007   2.166  -1.292  0.00  0.00    +0.030 C 
BRANCH  12  13
ATOM     13  C   LIG    1        5.441   2.697  -1.313  0.00  0.00    -0.030 C 
ATOM     14  C   LIG    1        5.622   3.720  -0.189  0.00  0.00    +0.020 C 
ATOM     15  C   LIG    1        5.718   3.367  -2.661  0.00  0.00    +0.030 C 
ENDBRANCH  12  13
ENDBRANCH  11  12
ENDBRANCH  10  11
ENDBRANCH   6  10
TORSDOF 5
ENDMDL
MODEL      496
REMARK  Name = ZINC001193603592
REMARK                            x       y       z     vdW  Elec       q    Type
REMARK                         _______ _______ _______ _____ _____    ______ ____
ROOT
ATOM      1  N   LIG    1       -3.127  -2.257   0.311  0.00  0.00    -0.390 N 
ATOM      2  C   LIG    1       -3.704  -1.990  -1.024  0.00  0.00    +0.240 C 
ATOM      3  C   LIG    1       -3.663  -3.356  -1.753  0.00  0.00    +0.080 C 
ATOM      4  C   LIG    1       -3.991  -4.338  -0.598  0.00  0.00    +0.010 C 
ATOM      5  C   LIG    1       -3.297  -3.690   0.614  0.00  0.00    +0.160 C 
ATOM      6  C   LIG    1       -4.165  -3.858   1.862  0.00  0.00    +0.090 C 
ATOM      7  H   LIG    1       -3.607  -1.704   1.005  0.00  0.00    +0.420 HD
ENDROOT
BRANCH   4   8
ATOM      8  C   LIG    1       -3.407  -5.723  -0.884  0.00  0.00    +0.030 C 
ATOM      9  C   LIG    1       -4.118  -6.338  -2.091  0.00  0.00    +0.030 C 
ENDBRANCH   4   8
BRANCH   1  10
ATOM     10  C   LIG    1       -1.698  -1.918   0.308  0.00  0.00    +0.250 C 
BRANCH  10  11
ATOM     11  C   LIG    1       -1.533  -0.405   0.157  0.00  0.00    -0.020 C 
BRANCH  11  13
ATOM     12  C   LIG    1       -2.097   1.814   1.158  0.00  0.00    +0.040 C 
ATOM     13  C   LIG    1       -2.150   0.299   1.367  0.00  0.00    +0.000 C 
ENDBRANCH  11  13
BRANCH  11  14
ATOM     14  C   LIG    1       -0.044  -0.060   0.070  0.00  0.00    +0.040 C 
ATOM     15  C   LIG    1        0.539  -0.639  -1.220  0.00  0.00    +0.020 C 
ENDBRANCH  11  14
ENDBRANCH  10  11
ENDBRANCH   1  10
TORSDOF 5
ENDMDL
MODEL      497
REMARK  Name = ZINC001193672900
REMARK                            x       y       z     vdW  Elec       q    Type
REMARK                         _______ _______ _______ _____ _____    ______ ____
ROOT
ATOM      1  C   LIG    1        0.849  -0.515   1.165  0.00  0.00    +0.170 C 
ATOM      2  C   LIG    1        0.919  -2.053   1.140  0.00  0.00    +0.000 C 
ATOM      3  C   LIG    1        2.418  -2.386   0.965  0.00  0.00    +0.080 C 
ATOM      4  C   LIG    1        2.992  -1.087   0.346  0.00  0.00    +0.250 C 
ATOM      5  C   LIG    1        0.110  -2.602  -0.037  0.00  0.00    +0.050 C 
ATOM      6  N   LIG    1        2.234  -0.011   1.046  0.00  0.00    -0.390 N 
ATOM      7  H   LIG    1        2.627   0.153   1.960  0.00  0.00    +0.430 HD
ENDROOT
BRANCH   1   9
ATOM      8  C   LIG    1       -0.285   1.478   0.173  0.00  0.00    +0.030 C 
ATOM      9  C   LIG    1        0.008  -0.012  -0.011  0.00  0.00    +0.060 C 
ENDBRANCH   1   9
BRANCH   6  10
ATOM     10  C   LIG    1        2.261   1.225   0.253  0.00  0.00    +0.260 C 
BRANCH  10  11
ATOM     11  C   LIG    1        3.708   1.691   0.083  0.00  0.00    +0.020 C 
BRANCH  11  12
ATOM     12  C   LIG    1        3.736   2.979  -0.743  0.00  0.00    +0.030 C 
BRANCH  12  13
ATOM     13  C   LIG    1        5.184   3.444  -0.913  0.00  0.00    -0.030 C 
ATOM     14  C   LIG    1        5.760   3.826   0.452  0.00  0.00    +0.020 C 
ATOM     15  C   LIG    1        5.223   4.660  -1.841  0.00  0.00    +0.030 C 
ENDBRANCH  12  13
ENDBRANCH  11  12
ENDBRANCH  10  11
ENDBRANCH   6  10
TORSDOF 5
ENDMDL
MODEL      498
REMARK  Name = ZINC001193603595
REMARK                            x       y       z     vdW  Elec       q    Type
REMARK                         _______ _______ _______ _____ _____    ______ ____
ROOT
ATOM      1  N   LIG    1       -3.051  -2.229   0.441  0.00  0.00    -0.390 N 
ATOM      2  C   LIG    1       -3.690  -2.031  -0.885  0.00  0.00    +0.250 C 
ATOM      3  C   LIG    1       -4.924  -2.965  -0.828  0.00  0.00    +0.080 C 
ATOM      4  C   LIG    1       -4.394  -4.192  -0.050  0.00  0.00    +0.010 C 
ATOM      5  C   LIG    1       -3.176  -3.672   0.739  0.00  0.00    +0.170 C 
ATOM      6  C   LIG    1       -1.912  -4.411   0.293  0.00  0.00    +0.080 C 
ATOM      7  H   LIG    1       -3.532  -1.686   1.143  0.00  0.00    +0.420 HD
ENDROOT
BRANCH   4   8
ATOM      8  C   LIG    1       -5.464  -4.717   0.908  0.00  0.00    +0.030 C 
ATOM      9  C   LIG    1       -6.639  -5.277   0.104  0.00  0.00    +0.030 C 
ENDBRANCH   4   8
BRANCH   1  10
ATOM     10  C   LIG    1       -1.635  -1.844   0.384  0.00  0.00    +0.250 C 
BRANCH  10  11
ATOM     11  C   LIG    1       -1.525  -0.327   0.220  0.00  0.00    -0.020 C 
BRANCH  11  13
ATOM     12  C   LIG    1       -2.119   1.878   1.234  0.00  0.00    +0.040 C 
ATOM     13  C   LIG    1       -2.115   0.363   1.451  0.00  0.00    +0.000 C 
ENDBRANCH  11  13
BRANCH  11  14
ATOM     14  C   LIG    1       -0.053   0.065   0.073  0.00  0.00    +0.040 C 
ATOM     15  C   LIG    1        0.497  -0.502  -1.238  0.00  0.00    +0.020 C 
ENDBRANCH  11  14
ENDBRANCH  10  11
ENDBRANCH   1  10
TORSDOF 5
ENDMDL
MODEL      499
REMARK  Name = ZINC000149554757
REMARK                            x       y       z     vdW  Elec       q    Type
REMARK                         _______ _______ _______ _____ _____    ______ ____
ROOT
ATOM      1  N   LIG    1       -4.237  -4.621   0.104  0.00  0.00    -0.390 N 
ATOM      2  H   LIG    1       -4.817  -4.452   0.912  0.00  0.00    +0.420 HD
ENDROOT
BRANCH   1   3
ATOM      3  C   LIG    1       -4.762  -3.867  -1.042  0.00  0.00    +0.240 C 
ATOM      4  C   LIG    1       -3.890  -4.134  -2.270  0.00  0.00    +0.080 C 
ENDBRANCH   1   3
BRANCH   1   5
ATOM      5  C   LIG    1       -2.863  -4.186   0.389  0.00  0.00    +0.240 C 
BRANCH   5   6
ATOM      6  C   LIG    1       -2.873  -2.723   0.838  0.00  0.00    +0.030 C 
BRANCH   6   7
ATOM      7  C   LIG    1       -1.442  -2.271   1.134  0.00  0.00    +0.020 C 
BRANCH   7   8
ATOM      8  C   LIG    1       -1.453  -0.808   1.583  0.00  0.00    +0.020 C 
BRANCH   8  10
ATOM      9  C   LIG    1       -0.033   1.108   2.328  0.00  0.00    +0.020 C 
ATOM     10  C   LIG    1       -0.022  -0.355   1.879  0.00  0.00    -0.010 C 
ENDBRANCH   8  10
ENDBRANCH   7   8
ENDBRANCH   6   7
ENDBRANCH   5   6
ENDBRANCH   1   5
BRANCH   1  11
ATOM     11  C   LIG    1       -4.241  -6.056  -0.210  0.00  0.00    +0.250 C 
BRANCH  11  12
ATOM     12  C   LIG    1       -5.684  -6.538  -0.375  0.00  0.00    -0.030 C 
ATOM     13  C   LIG    1       -6.432  -6.370   0.950  0.00  0.00    +0.030 C 
ATOM     14  C   LIG    1       -5.686  -8.013  -0.779  0.00  0.00    +0.070 C 
ENDBRANCH  11  12
ENDBRANCH   1  11
TORSDOF 8
ENDMDL
MODEL      500
REMARK  Name = ZINC001194041924
REMARK                            x       y       z     vdW  Elec       q    Type
REMARK                         _______ _______ _______ _____ _____    ______ ____
ROOT
ATOM      1  N   LIG    1        0.762  -1.980   1.234  0.00  0.00    -0.380 N 
ATOM      2  C   LIG    1        1.450  -2.454   0.025  0.00  0.00    +0.320 C 
ATOM      3  H   LIG    1       -0.185  -2.329   1.241  0.00  0.00    +0.420 HD
ENDROOT
BRANCH   1   4
ATOM      4  C   LIG    1        0.742  -0.511   1.242  0.00  0.00    +0.050 C 
ATOM      5  C   LIG    1        0.026  -0.018   2.500  0.00  0.00    +0.090 C 
ATOM      6  C   LIG    1        2.178   0.019   1.231  0.00  0.00    +0.090 C 
BRANCH   4   8
ATOM      7  C   LIG    1       -0.019   1.526   0.010  0.00  0.00    +0.060 C 
ATOM      8  C   LIG    1        0.002  -0.004   0.002  0.00  0.00    +0.040 C 
ENDBRANCH   4   8
ENDBRANCH   1   4
BRANCH   1   9
ATOM      9  C   LIG    1        1.472  -2.466   2.424  0.00  0.00    +0.240 C 
BRANCH   9  10
ATOM     10  C   LIG    1        1.386  -3.993   2.481  0.00  0.00    +0.030 C 
BRANCH  10  11
ATOM     11  C   LIG    1        2.126  -4.500   3.720  0.00  0.00    +0.030 C 
BRANCH  11  12
ATOM     12  C   LIG    1        2.039  -6.026   3.777  0.00  0.00    -0.020 C 
ATOM     13  C   LIG    1        3.160  -6.736   3.000  0.00  0.00    +0.010 C 
ATOM     14  C   LIG    1        3.218  -7.745   4.159  0.00  0.00    +0.000 C 
ATOM     15  C   LIG    1        2.649  -6.630   5.053  0.00  0.00    +0.010 C 
ENDBRANCH  11  12
ENDBRANCH  10  11
ENDBRANCH   9  10
ENDBRANCH   1   9
TORSDOF 6
ENDMDL
MODEL      501
REMARK  Name = ZINC001194041962
REMARK                            x       y       z     vdW  Elec       q    Type
REMARK                         _______ _______ _______ _____ _____    ______ ____
ROOT
ATOM      1  N   LIG    1       -2.794  -2.566  -0.111  0.00  0.00    -0.380 N 
ATOM      2  C   LIG    1       -3.504  -2.079  -1.301  0.00  0.00    +0.310 C 
ATOM      3  H   LIG    1       -3.266  -2.241   0.719  0.00  0.00    +0.420 HD
ENDROOT
BRANCH   1   4
ATOM      4  C   LIG    1       -2.774  -4.035  -0.119  0.00  0.00    +0.150 C 
ATOM      5  C   LIG    1       -4.210  -4.604  -0.009  0.00  0.00    +0.040 C 
ATOM      6  C   LIG    1       -4.013  -6.019   0.574  0.00  0.00    +0.050 C 
ATOM      7  C   LIG    1       -2.665  -6.005   1.316  0.00  0.00    -0.060 C 
ATOM      8  C   LIG    1       -1.713  -7.027   0.693  0.00  0.00    +0.040 C 
ATOM      9  C   LIG    1       -2.880  -6.323   2.797  0.00  0.00    +0.040 C 
ATOM     10  C   LIG    1       -2.086  -4.582   1.157  0.00  0.00    +0.050 C 
ENDBRANCH   1   4
BRANCH   1  11
ATOM     11  C   LIG    1       -1.416  -2.058  -0.121  0.00  0.00    +0.240 C 
BRANCH  11  12
ATOM     12  C   LIG    1       -1.433  -0.534   0.013  0.00  0.00    +0.040 C 
BRANCH  12  14
ATOM     13  C   LIG    1       -0.019   1.526   0.010  0.00  0.00    +0.040 C 
ATOM     14  C   LIG    1        0.002  -0.004   0.002  0.00  0.00    -0.010 C 
ATOM     15  C   LIG    1        0.742  -0.511   1.242  0.00  0.00    +0.020 C 
ENDBRANCH  12  14
ENDBRANCH  11  12
ENDBRANCH   1  11
TORSDOF 4
ENDMDL
MODEL      502
REMARK  Name = ZINC001194041963
REMARK                            x       y       z     vdW  Elec       q    Type
REMARK                         _______ _______ _______ _____ _____    ______ ____
ROOT
ATOM      1  N   LIG    1       -2.794  -2.566  -0.111  0.00  0.00    -0.380 N 
ATOM      2  C   LIG    1       -3.504  -2.079  -1.301  0.00  0.00    +0.310 C 
ATOM      3  H   LIG    1       -3.266  -2.241   0.719  0.00  0.00    +0.420 HD
ENDROOT
BRANCH   1   4
ATOM      4  C   LIG    1       -2.774  -4.035  -0.119  0.00  0.00    +0.160 C 
ATOM      5  C   LIG    1       -2.101  -4.575   1.167  0.00  0.00    +0.040 C 
ATOM      6  C   LIG    1       -2.690  -6.003   1.288  0.00  0.00    +0.050 C 
ATOM      7  C   LIG    1       -4.157  -5.846   0.836  0.00  0.00    -0.060 C 
ATOM      8  C   LIG    1       -5.063  -5.659   2.055  0.00  0.00    +0.040 C 
ATOM      9  C   LIG    1       -4.595  -7.077   0.041  0.00  0.00    +0.040 C 
ATOM     10  C   LIG    1       -4.210  -4.595  -0.062  0.00  0.00    +0.060 C 
ENDBRANCH   1   4
BRANCH   1  11
ATOM     11  C   LIG    1       -1.416  -2.058  -0.121  0.00  0.00    +0.240 C 
BRANCH  11  12
ATOM     12  C   LIG    1       -1.433  -0.534   0.013  0.00  0.00    +0.040 C 
BRANCH  12  14
ATOM     13  C   LIG    1       -0.019   1.526   0.010  0.00  0.00    +0.040 C 
ATOM     14  C   LIG    1        0.002  -0.004   0.002  0.00  0.00    -0.010 C 
ATOM     15  C   LIG    1        0.742  -0.511   1.242  0.00  0.00    +0.020 C 
ENDBRANCH  12  14
ENDBRANCH  11  12
ENDBRANCH   1  11
TORSDOF 4
ENDMDL
MODEL      503
REMARK  Name = ZINC001194533400
REMARK                            x       y       z     vdW  Elec       q    Type
REMARK                         _______ _______ _______ _____ _____    ______ ____
ROOT
ATOM      1  N   LIG    1        1.595  -2.372  -2.632  0.00  0.00    -0.390 N 
ATOM      2  C   LIG    1        3.063  -2.232  -2.520  0.00  0.00    +0.250 C 
ATOM      3  C   LIG    1        3.542  -3.571  -1.906  0.00  0.00    +0.070 C 
ATOM      4  C   LIG    1        2.590  -4.588  -2.589  0.00  0.00    +0.090 C 
ATOM      5  C   LIG    1        1.266  -3.808  -2.691  0.00  0.00    +0.060 C 
ATOM      6  C   LIG    1        0.351  -4.180  -1.522  0.00  0.00    +0.080 C 
ATOM      7  H   LIG    1        1.273  -1.915  -3.472  0.00  0.00    +0.420 HD
ENDROOT
BRANCH   1   8
ATOM      8  C   LIG    1        0.950  -1.764  -1.460  0.00  0.00    +0.250 C 
BRANCH   8   9
ATOM      9  C   LIG    1        1.185  -0.253  -1.475  0.00  0.00    +0.020 C 
BRANCH   9  11
ATOM     10  C   LIG    1        0.748   1.892  -0.269  0.00  0.00    +0.030 C 
ATOM     11  C   LIG    1        0.514   0.380  -0.254  0.00  0.00    +0.020 C 
ENDBRANCH   9  11
ENDBRANCH   8   9
ENDBRANCH   1   8
BRANCH   5  12
ATOM     12  C   LIG    1        0.575  -4.125  -4.018  0.00  0.00    +0.050 C 
BRANCH  12  13
ATOM     13  C   LIG    1        0.146  -5.594  -4.032  0.00  0.00    -0.010 C 
ATOM     14  C   LIG    1        1.388  -6.487  -4.059  0.00  0.00    +0.030 C 
ATOM     15  C   LIG    1       -0.704  -5.865  -5.275  0.00  0.00    +0.040 C 
ENDBRANCH  12  13
ENDBRANCH   5  12
TORSDOF 5
ENDMDL
MODEL      504
REMARK  Name = ZINC001194533401
REMARK                            x       y       z     vdW  Elec       q    Type
REMARK                         _______ _______ _______ _____ _____    ______ ____
ROOT
ATOM      1  N   LIG    1        1.407  -2.374  -1.119  0.00  0.00    -0.390 N 
ATOM      2  C   LIG    1        2.774  -2.045  -0.664  0.00  0.00    +0.250 C 
ATOM      3  C   LIG    1        3.700  -2.974  -1.488  0.00  0.00    +0.070 C 
ATOM      4  C   LIG    1        2.855  -4.274  -1.560  0.00  0.00    +0.090 C 
ATOM      5  C   LIG    1        1.412  -3.745  -1.662  0.00  0.00    +0.050 C 
ATOM      6  C   LIG    1        0.969  -3.723  -3.126  0.00  0.00    +0.090 C 
ATOM      7  H   LIG    1        1.123  -1.725  -1.839  0.00  0.00    +0.420 HD
ENDROOT
BRANCH   1   8
ATOM      8  C   LIG    1        0.475  -2.295   0.014  0.00  0.00    +0.240 C 
BRANCH   8   9
ATOM      9  C   LIG    1        0.373  -0.844   0.489  0.00  0.00    +0.010 C 
BRANCH   9  11
ATOM     10  C   LIG    1       -0.700   0.689   2.145  0.00  0.00    +0.030 C 
ATOM     11  C   LIG    1       -0.597  -0.761   1.670  0.00  0.00    +0.020 C 
ENDBRANCH   9  11
ENDBRANCH   8   9
ENDBRANCH   1   8
BRANCH   5  12
ATOM     12  C   LIG    1        0.473  -4.633  -0.843  0.00  0.00    +0.050 C 
BRANCH  12  13
ATOM     13  C   LIG    1        0.408  -6.025  -1.475  0.00  0.00    -0.010 C 
ATOM     14  C   LIG    1       -0.671  -6.853  -0.774  0.00  0.00    +0.040 C 
ATOM     15  C   LIG    1        1.763  -6.719  -1.322  0.00  0.00    +0.030 C 
ENDBRANCH  12  13
ENDBRANCH   5  12
TORSDOF 5
ENDMDL
MODEL      505
REMARK  Name = ZINC001194782157
REMARK                            x       y       z     vdW  Elec       q    Type
REMARK                         _______ _______ _______ _____ _____    ______ ____
ROOT
ATOM      1  N   LIG    1       -2.212  -0.129   1.593  0.00  0.00    -0.380 N 
ATOM      2  H   LIG    1       -1.746  -0.098   2.487  0.00  0.00    +0.420 HD
ENDROOT
BRANCH   1   3
ATOM      3  C   LIG    1       -2.486   1.240   1.136  0.00  0.00    +0.240 C 
ATOM      4  C   LIG    1       -3.241   2.001   2.228  0.00  0.00    +0.080 C 
ENDBRANCH   1   3
BRANCH   1   5
ATOM      5  C   LIG    1       -1.352  -0.808   0.615  0.00  0.00    +0.170 C 
BRANCH   5   7
ATOM      6  C   LIG    1       -3.158  -1.642  -0.897  0.00  0.00    +0.020 C 
ATOM      7  C   LIG    1       -1.969  -0.686  -0.780  0.00  0.00    +0.050 C 
ENDBRANCH   5   7
BRANCH   5   8
ATOM      8  C   LIG    1        0.034  -0.160   0.618  0.00  0.00    +0.050 C 
ATOM      9  C   LIG    1        0.647  -0.274   2.015  0.00  0.00    +0.040 C 
ENDBRANCH   5   8
ENDBRANCH   1   5
BRANCH   1  10
ATOM     10  C   LIG    1       -3.478  -0.863   1.725  0.00  0.00    +0.290 C 
BRANCH  10  11
ATOM     11  C   LIG    1       -3.989  -0.744   3.162  0.00  0.00    -0.090 C 
ATOM     12  C   LIG    1       -4.107  -2.031   3.979  0.00  0.00    +0.050 C 
ATOM     13  C   LIG    1       -5.369  -1.327   3.472  0.00  0.00    +0.010 C 
BRANCH  13  14
ATOM     14  C   LIG    1       -6.231  -0.595   4.502  0.00  0.00    +0.040 C 
ATOM     15  C   LIG    1       -7.608  -1.258   4.578  0.00  0.00    +0.020 C 
ENDBRANCH  13  14
ENDBRANCH  10  11
ENDBRANCH   1  10
TORSDOF 7
ENDMDL
MODEL      506
REMARK  Name = ZINC001194873242
REMARK                            x       y       z     vdW  Elec       q    Type
REMARK                         _______ _______ _______ _____ _____    ______ ____
ROOT
ATOM      1  N   LIG    1        3.049  -2.254   2.391  0.00  0.00    -0.380 N 
ATOM      2  C   LIG    1        3.157  -0.797   2.546  0.00  0.00    +0.310 C 
ATOM      3  H   LIG    1        3.606  -2.551   1.604  0.00  0.00    +0.420 HD
ENDROOT
BRANCH   1   4
ATOM      4  C   LIG    1        1.644  -2.619   2.163  0.00  0.00    +0.160 C 
ATOM      5  C   LIG    1        0.818  -2.265   3.401  0.00  0.00    +0.090 C 
BRANCH   4   6
ATOM      6  C   LIG    1        1.545  -4.123   1.898  0.00  0.00    +0.050 C 
BRANCH   6   7
ATOM      7  C   LIG    1        2.281  -4.461   0.600  0.00  0.00    -0.000 C 
BRANCH   7   9
ATOM      8  C   LIG    1        2.903  -6.300  -0.974  0.00  0.00    +0.010 C 
ATOM      9  C   LIG    1        2.167  -5.962   0.325  0.00  0.00    +0.020 C 
ENDBRANCH   7   9
ENDBRANCH   6   7
ENDBRANCH   4   6
ENDBRANCH   1   4
BRANCH   1  10
ATOM     10  C   LIG    1        3.535  -2.913   3.611  0.00  0.00    +0.280 C 
BRANCH  10  11
ATOM     11  C   LIG    1        5.026  -2.623   3.788  0.00  0.00    -0.080 C 
ATOM     12  C   LIG    1        5.989  -3.810   3.728  0.00  0.00    +0.050 C 
ATOM     13  C   LIG    1        5.697  -3.128   5.067  0.00  0.00    +0.010 C 
BRANCH  13  14
ATOM     14  C   LIG    1        6.803  -2.262   5.675  0.00  0.00    +0.040 C 
ATOM     15  C   LIG    1        7.255  -2.872   7.003  0.00  0.00    +0.020 C 
ENDBRANCH  13  14
ENDBRANCH  10  11
ENDBRANCH   1  10
TORSDOF 7
ENDMDL
MODEL      507
REMARK  Name = ZINC000308413656
REMARK                            x       y       z     vdW  Elec       q    Type
REMARK                         _______ _______ _______ _____ _____    ______ ____
ROOT
ATOM      1  N   LIG    1        2.523  -4.513  -3.535  0.00  0.00    -0.390 N 
ATOM      2  C   LIG    1        3.976  -4.294  -3.527  0.00  0.00    +0.310 C 
ATOM      3  H   LIG    1        2.129  -4.118  -4.376  0.00  0.00    +0.420 HD
ENDROOT
BRANCH   1   4
ATOM      4  C   LIG    1        1.924  -3.863  -2.362  0.00  0.00    +0.250 C 
BRANCH   4   5
ATOM      5  C   LIG    1        2.106  -2.348  -2.469  0.00  0.00    +0.030 C 
BRANCH   5   6
ATOM      6  C   LIG    1        1.482  -1.671  -1.247  0.00  0.00    +0.020 C 
BRANCH   6   7
ATOM      7  C   LIG    1        1.664  -0.156  -1.354  0.00  0.00    +0.020 C 
BRANCH   7   9
ATOM      8  C   LIG    1        1.222   2.036  -0.239  0.00  0.00    +0.020 C 
ATOM      9  C   LIG    1        1.039   0.520  -0.132  0.00  0.00    -0.010 C 
ENDBRANCH   7   9
ENDBRANCH   6   7
ENDBRANCH   5   6
ENDBRANCH   4   5
ENDBRANCH   1   4
BRANCH   1  10
ATOM     10  C   LIG    1        2.244  -5.954  -3.493  0.00  0.00    +0.250 C 
BRANCH  10  11
ATOM     11  C   LIG    1        2.747  -6.609  -4.781  0.00  0.00    -0.030 C 
ATOM     12  C   LIG    1        2.583  -8.127  -4.679  0.00  0.00    +0.070 C 
BRANCH  11  13
ATOM     13  C   LIG    1        1.936  -6.087  -5.968  0.00  0.00    +0.000 C 
ATOM     14  C   LIG    1        2.518  -6.645  -7.269  0.00  0.00    +0.040 C 
ENDBRANCH  11  13
ENDBRANCH  10  11
ENDBRANCH   1  10
TORSDOF 8
ENDMDL
MODEL      508
REMARK  Name = ZINC001194873244
REMARK                            x       y       z     vdW  Elec       q    Type
REMARK                         _______ _______ _______ _____ _____    ______ ____
ROOT
ATOM      1  N   LIG    1        0.843  -2.064   3.561  0.00  0.00    -0.380 N 
ATOM      2  C   LIG    1        1.600  -2.363   4.784  0.00  0.00    +0.310 C 
ATOM      3  H   LIG    1       -0.048  -2.536   3.593  0.00  0.00    +0.420 HD
ENDROOT
BRANCH   1   4
ATOM      4  C   LIG    1        1.600  -2.526   2.390  0.00  0.00    +0.160 C 
ATOM      5  C   LIG    1        3.002  -1.912   2.414  0.00  0.00    +0.090 C 
BRANCH   4   6
ATOM      6  C   LIG    1        1.712  -4.052   2.425  0.00  0.00    +0.050 C 
BRANCH   6   7
ATOM      7  C   LIG    1        0.320  -4.669   2.272  0.00  0.00    -0.000 C 
BRANCH   7   9
ATOM      8  C   LIG    1       -0.948  -6.807   2.026  0.00  0.00    +0.010 C 
ATOM      9  C   LIG    1        0.444  -6.191   2.179  0.00  0.00    +0.020 C 
ENDBRANCH   7   9
ENDBRANCH   6   7
ENDBRANCH   4   6
ENDBRANCH   1   4
BRANCH   1  10
ATOM     10  C   LIG    1        0.625  -0.614   3.461  0.00  0.00    +0.280 C 
BRANCH  10  11
ATOM     11  C   LIG    1       -0.294  -0.158   4.596  0.00  0.00    -0.080 C 
ATOM     12  C   LIG    1       -1.656   0.424   4.212  0.00  0.00    +0.060 C 
ATOM     13  C   LIG    1       -0.551   1.344   4.736  0.00  0.00    +0.010 C 
BRANCH  13  14
ATOM     14  C   LIG    1       -0.711   1.905   6.151  0.00  0.00    +0.040 C 
ATOM     15  C   LIG    1       -0.834   3.429   6.084  0.00  0.00    +0.020 C 
ENDBRANCH  13  14
ENDBRANCH  10  11
ENDBRANCH   1  10
TORSDOF 7
ENDMDL
MODEL      509
REMARK  Name = ZINC000225266350
REMARK                            x       y       z     vdW  Elec       q    Type
REMARK                         _______ _______ _______ _____ _____    ______ ____
ROOT
ATOM      1  N   LIG    1        2.232  -4.703   3.464  0.00  0.00    -0.380 N 
ATOM      2  C   LIG    1        1.259  -4.186   4.435  0.00  0.00    +0.320 C 
ATOM      3  H   LIG    1        3.140  -4.303   3.652  0.00  0.00    +0.420 HD
ENDROOT
BRANCH   1   4
ATOM      4  C   LIG    1        2.308  -6.165   3.578  0.00  0.00    +0.160 C 
ATOM      5  C   LIG    1        0.907  -6.761   3.432  0.00  0.00    +0.080 C 
BRANCH   4   6
ATOM      6  C   LIG    1        2.883  -6.542   4.945  0.00  0.00    +0.050 C 
BRANCH   6   7
ATOM      7  C   LIG    1        4.314  -6.013   5.060  0.00  0.00    -0.000 C 
ATOM      8  C   LIG    1        4.900  -6.417   6.414  0.00  0.00    +0.030 C 
ENDBRANCH   6   7
ENDBRANCH   4   6
ENDBRANCH   1   4
BRANCH   1   9
ATOM      9  C   LIG    1        1.810  -4.338   2.105  0.00  0.00    +0.250 C 
BRANCH   9  10
ATOM     10  C   LIG    1        1.835  -2.816   1.954  0.00  0.00    +0.030 C 
BRANCH  10  11
ATOM     11  C   LIG    1        1.395  -2.437   0.539  0.00  0.00    +0.020 C 
BRANCH  11  12
ATOM     12  C   LIG    1        1.420  -0.914   0.388  0.00  0.00    +0.020 C 
BRANCH  12  14
ATOM     13  C   LIG    1        1.005   0.988  -1.178  0.00  0.00    +0.020 C 
ATOM     14  C   LIG    1        0.979  -0.535  -1.027  0.00  0.00    -0.010 C 
ENDBRANCH  12  14
ENDBRANCH  11  12
ENDBRANCH  10  11
ENDBRANCH   9  10
ENDBRANCH   1   9
TORSDOF 8
ENDMDL
MODEL      510
REMARK  Name = ZINC000225266316
REMARK                            x       y       z     vdW  Elec       q    Type
REMARK                         _______ _______ _______ _____ _____    ______ ____
ROOT
ATOM      1  N   LIG    1        2.443  -4.371   3.749  0.00  0.00    -0.380 N 
ATOM      2  C   LIG    1        1.712  -3.858   4.915  0.00  0.00    +0.310 C 
ATOM      3  H   LIG    1        3.408  -4.081   3.804  0.00  0.00    +0.420 HD
ENDROOT
BRANCH   1   4
ATOM      4  C   LIG    1        2.372  -5.838   3.733  0.00  0.00    +0.160 C 
ATOM      5  C   LIG    1        0.925  -6.276   3.499  0.00  0.00    +0.080 C 
BRANCH   4   6
ATOM      6  C   LIG    1        3.257  -6.379   2.608  0.00  0.00    +0.050 C 
BRANCH   6   7
ATOM      7  C   LIG    1        4.721  -6.051   2.908  0.00  0.00    -0.000 C 
ATOM      8  C   LIG    1        5.616  -6.702   1.852  0.00  0.00    +0.030 C 
ENDBRANCH   6   7
ENDBRANCH   4   6
ENDBRANCH   1   4
BRANCH   1   9
ATOM      9  C   LIG    1        1.841  -3.838   2.519  0.00  0.00    +0.240 C 
BRANCH   9  10
ATOM     10  C   LIG    1        2.026  -2.320   2.478  0.00  0.00    +0.020 C 
BRANCH  10  11
ATOM     11  C   LIG    1        1.399  -1.764   1.197  0.00  0.00    +0.020 C 
BRANCH  11  12
ATOM     12  C   LIG    1        1.584  -0.246   1.155  0.00  0.00    +0.020 C 
BRANCH  12  14
ATOM     13  C   LIG    1        1.142   1.827  -0.167  0.00  0.00    +0.020 C 
ATOM     14  C   LIG    1        0.957   0.309  -0.125  0.00  0.00    -0.010 C 
ENDBRANCH  12  14
ENDBRANCH  11  12
ENDBRANCH  10  11
ENDBRANCH   9  10
ENDBRANCH   1   9
TORSDOF 8
ENDMDL
MODEL      511
REMARK  Name = ZINC001195195492
REMARK                            x       y       z     vdW  Elec       q    Type
REMARK                         _______ _______ _______ _____ _____    ______ ____
ROOT
ATOM      1  N   LIG    1        2.234  -4.564   3.654  0.00  0.00    -0.390 N 
ATOM      2  C   LIG    1        1.455  -4.251   4.880  0.00  0.00    +0.260 C 
ATOM      3  C   LIG    1        1.997  -5.269   5.914  0.00  0.00    -0.080 C 
ATOM      4  C   LIG    1        2.219  -6.541   5.064  0.00  0.00    +0.080 C 
ATOM      5  C   LIG    1        0.966  -5.522   7.016  0.00  0.00    +0.080 C 
ATOM      6  C   LIG    1        3.318  -4.781   6.513  0.00  0.00    +0.050 C 
ATOM      7  C   LIG    1        2.348  -6.038   3.613  0.00  0.00    +0.170 C 
ATOM      8  C   LIG    1        1.226  -6.627   2.756  0.00  0.00    +0.080 C 
ATOM      9  H   LIG    1        3.151  -4.146   3.708  0.00  0.00    +0.420 HD
ENDROOT
BRANCH   1  10
ATOM     10  C   LIG    1        1.524  -4.077   2.464  0.00  0.00    +0.250 C 
BRANCH  10  11
ATOM     11  C   LIG    1        1.503  -2.548   2.473  0.00  0.00    +0.010 C 
BRANCH  11  12
ATOM     12  C   LIG    1        0.763  -2.041   1.233  0.00  0.00    +0.020 C 
BRANCH  12  13
ATOM     13  C   LIG    1        0.742  -0.511   1.242  0.00  0.00    +0.020 C 
BRANCH  13  15
ATOM     14  C   LIG    1       -0.019   1.526   0.010  0.00  0.00    +0.020 C 
ATOM     15  C   LIG    1        0.002  -0.004   0.002  0.00  0.00    -0.010 C 
ENDBRANCH  13  15
ENDBRANCH  12  13
ENDBRANCH  11  12
ENDBRANCH  10  11
ENDBRANCH   1  10
TORSDOF 5
ENDMDL
MODEL      512
REMARK  Name = ZINC001195195495
REMARK                            x       y       z     vdW  Elec       q    Type
REMARK                         _______ _______ _______ _____ _____    ______ ____
ROOT
ATOM      1  N   LIG    1        2.234  -4.564   3.654  0.00  0.00    -0.390 N 
ATOM      2  C   LIG    1        1.455  -4.251   4.880  0.00  0.00    +0.260 C 
ATOM      3  C   LIG    1        1.997  -5.269   5.914  0.00  0.00    -0.080 C 
ATOM      4  C   LIG    1        2.219  -6.541   5.064  0.00  0.00    +0.080 C 
ATOM      5  C   LIG    1        0.966  -5.522   7.016  0.00  0.00    +0.070 C 
ATOM      6  C   LIG    1        3.318  -4.781   6.513  0.00  0.00    +0.040 C 
ATOM      7  C   LIG    1        2.348  -6.038   3.613  0.00  0.00    +0.170 C 
ATOM      8  C   LIG    1        3.706  -6.447   3.039  0.00  0.00    +0.090 C 
ATOM      9  H   LIG    1        3.151  -4.146   3.708  0.00  0.00    +0.420 HD
ENDROOT
BRANCH   1  10
ATOM     10  C   LIG    1        1.524  -4.077   2.464  0.00  0.00    +0.250 C 
BRANCH  10  11
ATOM     11  C   LIG    1        1.503  -2.548   2.473  0.00  0.00    +0.030 C 
BRANCH  11  12
ATOM     12  C   LIG    1        0.763  -2.041   1.233  0.00  0.00    +0.020 C 
BRANCH  12  13
ATOM     13  C   LIG    1        0.742  -0.511   1.242  0.00  0.00    +0.020 C 
BRANCH  13  15
ATOM     14  C   LIG    1       -0.019   1.526   0.010  0.00  0.00    +0.020 C 
ATOM     15  C   LIG    1        0.002  -0.004   0.002  0.00  0.00    -0.010 C 
ENDBRANCH  13  15
ENDBRANCH  12  13
ENDBRANCH  11  12
ENDBRANCH  10  11
ENDBRANCH   1  10
TORSDOF 5
ENDMDL
MODEL      513
REMARK  Name = ZINC001195497890
REMARK                            x       y       z     vdW  Elec       q    Type
REMARK                         _______ _______ _______ _____ _____    ______ ____
ROOT
ATOM      1  N   LIG    1       -0.054  -0.259   4.942  0.00  0.00    -0.390 N 
ATOM      2  C   LIG    1       -1.346  -0.958   4.948  0.00  0.00    +0.300 C 
ATOM      3  H   LIG    1       -0.211   0.738   4.947  0.00  0.00    +0.420 HD
ENDROOT
BRANCH   1   4
ATOM      4  C   LIG    1        0.698  -0.630   3.737  0.00  0.00    +0.250 C 
BRANCH   4   5
ATOM      5  C   LIG    1       -0.042  -0.124   2.497  0.00  0.00    +0.030 C 
BRANCH   5   6
ATOM      6  C   LIG    1        0.742  -0.511   1.242  0.00  0.00    +0.030 C 
BRANCH   6   8
ATOM      7  C   LIG    1       -0.019   1.526   0.010  0.00  0.00    +0.020 C 
ATOM      8  C   LIG    1        0.002  -0.004   0.002  0.00  0.00    -0.030 C 
ATOM      9  C   LIG    1        0.718  -0.497  -1.257  0.00  0.00    +0.030 C 
ENDBRANCH   6   8
ENDBRANCH   5   6
ENDBRANCH   4   5
ENDBRANCH   1   4
BRANCH   1  10
ATOM     10  C   LIG    1        0.714  -0.639   6.136  0.00  0.00    +0.240 C 
BRANCH  10  11
ATOM     11  C   LIG    1       -0.010  -0.141   7.388  0.00  0.00    +0.040 C 
BRANCH  11  12
ATOM     12  C   LIG    1        0.790  -0.537   8.631  0.00  0.00    -0.060 C 
ATOM     13  C   LIG    1        0.920  -2.061   8.689  0.00  0.00    +0.030 C 
ATOM     14  C   LIG    1        0.066  -0.039   9.883  0.00  0.00    +0.040 C 
ATOM     15  C   LIG    1        2.183   0.092   8.563  0.00  0.00    +0.030 C 
ENDBRANCH  11  12
ENDBRANCH  10  11
ENDBRANCH   1  10
TORSDOF 7
ENDMDL
MODEL      514
REMARK  Name = ZINC001195450911
REMARK                            x       y       z     vdW  Elec       q    Type
REMARK                         _______ _______ _______ _____ _____    ______ ____
ROOT
ATOM      1  C   LIG    1       -1.446  -0.851   1.449  0.00  0.00    +0.240 C 
ENDROOT
BRANCH   1   2
ATOM      2  N   LIG    1       -2.612  -0.531   0.614  0.00  0.00    -0.380 N 
ATOM      3  C   LIG    1       -2.409  -1.071  -0.737  0.00  0.00    +0.320 C 
ATOM      4  H   LIG    1       -2.725   0.470   0.563  0.00  0.00    +0.420 HD
BRANCH   2   5
ATOM      5  C   LIG    1       -3.817  -1.130   1.205  0.00  0.00    +0.050 C 
ATOM      6  C   LIG    1       -3.646  -2.648   1.282  0.00  0.00    +0.080 C 
ATOM      7  C   LIG    1       -5.030  -0.797   0.335  0.00  0.00    +0.090 C 
ATOM      8  C   LIG    1       -4.028  -0.568   2.612  0.00  0.00    +0.090 C 
ENDBRANCH   2   5
ENDBRANCH   1   2
BRANCH   1  10
ATOM      9  C   LIG    1       -0.410   1.386   1.043  0.00  0.00    +0.040 C 
ATOM     10  C   LIG    1       -0.214  -0.125   0.905  0.00  0.00    -0.020 C 
BRANCH  10  11
ATOM     11  C   LIG    1        1.022  -0.554   1.697  0.00  0.00    +0.050 C 
BRANCH  11  12
ATOM     12  C   LIG    1        2.276   0.021   1.036  0.00  0.00    -0.070 C 
ATOM     13  C   LIG    1        2.293  -0.361  -0.445  0.00  0.00    +0.020 C 
ATOM     14  C   LIG    1        3.520  -0.545   1.724  0.00  0.00    +0.030 C 
ATOM     15  C   LIG    1        2.269   1.545   1.170  0.00  0.00    +0.020 C 
ENDBRANCH  11  12
ENDBRANCH  10  11
ENDBRANCH   1  10
TORSDOF 5
ENDMDL
MODEL      515
REMARK  Name = ZINC001195349937
REMARK                            x       y       z     vdW  Elec       q    Type
REMARK                         _______ _______ _______ _____ _____    ______ ____
ROOT
ATOM      1  N   LIG    1       -0.841  -2.251   1.770  0.00  0.00    -0.370 N 
ATOM      2  C   LIG    1       -1.601  -1.565   2.817  0.00  0.00    +0.240 C 
ATOM      3  C   LIG    1       -0.878  -1.724   4.152  0.00  0.00    +0.060 C 
ATOM      4  C   LIG    1       -0.767  -3.198   4.524  0.00  0.00    -0.010 C 
ATOM      5  C   LIG    1       -0.219  -4.039   3.384  0.00  0.00    +0.070 C 
ATOM      6  C   LIG    1       -2.114  -3.731   5.014  0.00  0.00    +0.040 C 
ATOM      7  C   LIG    1       -0.760  -3.688   2.011  0.00  0.00    +0.160 C 
ATOM      8  C   LIG    1       -2.108  -4.360   1.752  0.00  0.00    +0.080 C 
ATOM      9  H   LIG    1        0.098  -1.865   1.741  0.00  0.00    +0.420 HD
ENDROOT
BRANCH   1  10
ATOM     10  C   LIG    1       -1.482  -2.007   0.468  0.00  0.00    +0.240 C 
BRANCH  10  11
ATOM     11  C   LIG    1       -1.430  -0.513   0.145  0.00  0.00    -0.010 C 
BRANCH  11  13
ATOM     12  C   LIG    1        0.088   1.438  -0.217  0.00  0.00    +0.040 C 
ATOM     13  C   LIG    1        0.026  -0.079  -0.033  0.00  0.00    +0.000 C 
ENDBRANCH  11  13
BRANCH  11  14
ATOM     14  C   LIG    1       -2.204  -0.242  -1.147  0.00  0.00    +0.040 C 
ATOM     15  C   LIG    1       -3.688  -0.543  -0.925  0.00  0.00    +0.020 C 
ENDBRANCH  11  14
ENDBRANCH  10  11
ENDBRANCH   1  10
TORSDOF 4
ENDMDL
MODEL      516
REMARK  Name = ZINC001195596333
REMARK                            x       y       z     vdW  Elec       q    Type
REMARK                         _______ _______ _______ _____ _____    ______ ____
ROOT
ATOM      1  N   LIG    1        0.412  -3.008  -1.100  0.00  0.00    -0.380 N 
ATOM      2  H   LIG    1       -0.426  -3.406  -0.703  0.00  0.00    +0.420 HD
ENDROOT
BRANCH   1   3
ATOM      3  C   LIG    1        1.253  -2.465  -0.025  0.00  0.00    +0.160 C 
ATOM      4  C   LIG    1        0.411  -1.555   0.871  0.00  0.00    +0.090 C 
ATOM      5  C   LIG    1        2.402  -1.659  -0.634  0.00  0.00    +0.090 C 
ENDBRANCH   1   3
BRANCH   1   6
ATOM      6  C   LIG    1        0.049  -1.930  -2.030  0.00  0.00    +0.240 C 
BRANCH   6   8
ATOM      7  C   LIG    1       -1.601  -0.106  -2.470  0.00  0.00    +0.060 C 
ATOM      8  C   LIG    1       -1.072  -1.087  -1.421  0.00  0.00    +0.020 C 
ENDBRANCH   6   8
ENDBRANCH   1   6
BRANCH   1   9
ATOM      9  C   LIG    1        1.153  -4.050  -1.823  0.00  0.00    +0.240 C 
BRANCH   9  10
ATOM     10  C   LIG    1        1.452  -5.214  -0.876  0.00  0.00    +0.040 C 
BRANCH  10  11
ATOM     11  C   LIG    1        2.264  -6.278  -1.617  0.00  0.00    +0.000 C 
ATOM     12  C   LIG    1        3.699  -5.768  -1.898  0.00  0.00    +0.010 C 
ATOM     13  C   LIG    1        4.504  -7.081  -2.058  0.00  0.00    +0.010 C 
ATOM     14  C   LIG    1        3.896  -8.028  -1.003  0.00  0.00    +0.010 C 
ATOM     15  C   LIG    1        2.472  -7.518  -0.722  0.00  0.00    +0.020 C 
ENDBRANCH  10  11
ENDBRANCH   9  10
ENDBRANCH   1   9
TORSDOF 6
ENDMDL
MODEL      517
REMARK  Name = ZINC001195450904
REMARK                            x       y       z     vdW  Elec       q    Type
REMARK                         _______ _______ _______ _____ _____    ______ ____
ROOT
ATOM      1  C   LIG    1        0.389  -1.077   1.757  0.00  0.00    +0.240 C 
ENDROOT
BRANCH   1   2
ATOM      2  N   LIG    1        1.787  -0.642   1.647  0.00  0.00    -0.380 N 
ATOM      3  C   LIG    1        1.854   0.823   1.742  0.00  0.00    +0.310 C 
ATOM      4  H   LIG    1        2.163  -0.939   0.759  0.00  0.00    +0.420 HD
BRANCH   2   5
ATOM      5  C   LIG    1        2.572  -1.240   2.736  0.00  0.00    +0.050 C 
ATOM      6  C   LIG    1        2.002  -0.789   4.082  0.00  0.00    +0.080 C 
ATOM      7  C   LIG    1        4.029  -0.787   2.622  0.00  0.00    +0.090 C 
ATOM      8  C   LIG    1        2.503  -2.765   2.636  0.00  0.00    +0.090 C 
ENDBRANCH   2   5
ENDBRANCH   1   2
BRANCH   1  10
ATOM      9  C   LIG    1       -1.888  -0.873   0.747  0.00  0.00    +0.050 C 
ATOM     10  C   LIG    1       -0.404  -0.552   0.557  0.00  0.00    -0.020 C 
BRANCH  10  11
ATOM     11  C   LIG    1        0.103  -1.222  -0.721  0.00  0.00    +0.010 C 
BRANCH  11  12
ATOM     12  C   LIG    1       -0.344  -0.407  -1.936  0.00  0.00    -0.070 C 
ATOM     13  C   LIG    1       -1.870  -0.289  -1.937  0.00  0.00    +0.020 C 
ATOM     14  C   LIG    1        0.114  -1.106  -3.217  0.00  0.00    +0.020 C 
ATOM     15  C   LIG    1        0.275   0.991  -1.869  0.00  0.00    +0.020 C 
ENDBRANCH  11  12
ENDBRANCH  10  11
ENDBRANCH   1  10
TORSDOF 5
ENDMDL
MODEL      518
REMARK  Name = ZINC001195994609
REMARK                            x       y       z     vdW  Elec       q    Type
REMARK                         _______ _______ _______ _____ _____    ______ ____
ROOT
ATOM      1  N   LIG    1       -2.422   0.080  -0.686  0.00  0.00    -0.370 N 
ATOM      2  C   LIG    1       -3.607  -0.325  -1.305  0.00  0.00    +0.220 C 
ATOM      3  C   LIG    1       -4.576  -1.000  -0.312  0.00  0.00    +0.060 C 
ATOM      4  C   LIG    1       -4.124  -2.417  -0.070  0.00  0.00    -0.070 C 
ATOM      5  C   LIG    1       -3.201  -2.537   1.160  0.00  0.00    +0.050 C 
ATOM      6  C   LIG    1       -2.190  -1.377   1.231  0.00  0.00    -0.080 C 
ATOM      7  C   LIG    1       -1.035  -1.776   2.152  0.00  0.00    +0.070 C 
ATOM      8  C   LIG    1       -2.886  -0.142   1.807  0.00  0.00    +0.050 C 
ATOM      9  C   LIG    1       -3.369  -2.915  -1.304  0.00  0.00    +0.020 C 
ATOM     10  C   LIG    1       -5.355  -3.300   0.147  0.00  0.00    +0.040 C 
ATOM     11  C   LIG    1       -1.640  -1.043  -0.135  0.00  0.00    +0.270 C 
ATOM     12  H   LIG    1       -2.650   0.715   0.064  0.00  0.00    +0.420 HD
ENDROOT
BRANCH   1  14
ATOM     13  C   LIG    1       -2.389   1.964  -2.249  0.00  0.00    +0.090 C 
ATOM     14  C   LIG    1       -1.596   0.791  -1.670  0.00  0.00    +0.150 C 
ATOM     15  C   LIG    1       -0.332   1.318  -0.989  0.00  0.00    +0.090 C 
ENDBRANCH   1  14
TORSDOF 1
ENDMDL
MODEL      519
REMARK  Name = ZINC001196175124
REMARK                            x       y       z     vdW  Elec       q    Type
REMARK                         _______ _______ _______ _____ _____    ______ ____
ROOT
ATOM      1  N   LIG    1        1.475  -3.990  -2.532  0.00  0.00    -0.380 N 
ATOM      2  C   LIG    1        0.101  -4.495  -2.639  0.00  0.00    +0.250 C 
ATOM      3  C   LIG    1       -0.559  -3.927  -3.897  0.00  0.00    -0.010 C 
ATOM      4  C   LIG    1        0.243  -4.360  -5.128  0.00  0.00    +0.050 C 
ATOM      5  C   LIG    1        1.692  -3.891  -4.971  0.00  0.00    +0.060 C 
ATOM      6  C   LIG    1        2.268  -4.460  -3.674  0.00  0.00    +0.170 C 
ATOM      7  C   LIG    1        3.716  -3.995  -3.512  0.00  0.00    +0.090 C 
ATOM      8  H   LIG    1        1.890  -4.324  -1.675  0.00  0.00    +0.420 HD
ENDROOT
BRANCH   3   9
ATOM      9  C   LIG    1       -1.990  -4.457  -4.006  0.00  0.00    +0.020 C 
ATOM     10  C   LIG    1       -2.691  -3.793  -5.193  0.00  0.00    +0.030 C 
ENDBRANCH   3   9
BRANCH   1  11
ATOM     11  C   LIG    1        1.455  -2.521  -2.524  0.00  0.00    +0.230 C 
BRANCH  11  12
ATOM     12  C   LIG    1        0.739  -2.027  -1.265  0.00  0.00    +0.030 C 
BRANCH  12  13
ATOM     13  C   LIG    1        0.718  -0.497  -1.257  0.00  0.00    +0.020 C 
BRANCH  13  15
ATOM     14  C   LIG    1       -0.019   1.526   0.010  0.00  0.00    +0.020 C 
ATOM     15  C   LIG    1        0.002  -0.004   0.002  0.00  0.00    +0.000 C 
ENDBRANCH  13  15
ENDBRANCH  12  13
ENDBRANCH  11  12
ENDBRANCH   1  11
TORSDOF 5
ENDMDL
MODEL      520
REMARK  Name = ZINC001196038551
REMARK                            x       y       z     vdW  Elec       q    Type
REMARK                         _______ _______ _______ _____ _____    ______ ____
ROOT
ATOM      1  N   LIG    1       -4.273  -4.843   0.273  0.00  0.00    -0.380 N 
ATOM      2  H   LIG    1       -4.896  -4.385   0.920  0.00  0.00    +0.420 HD
ENDROOT
BRANCH   1   3
ATOM      3  C   LIG    1       -4.367  -6.298   0.449  0.00  0.00    +0.160 C 
ATOM      4  C   LIG    1       -3.350  -6.990  -0.461  0.00  0.00    +0.080 C 
BRANCH   3   5
ATOM      5  C   LIG    1       -4.071  -6.655   1.907  0.00  0.00    +0.050 C 
ATOM      6  C   LIG    1       -5.168  -6.080   2.806  0.00  0.00    +0.030 C 
ENDBRANCH   3   5
ENDBRANCH   1   3
BRANCH   1   7
ATOM      7  C   LIG    1       -4.651  -4.491  -1.103  0.00  0.00    +0.240 C 
ATOM      8  C   LIG    1       -6.129  -4.819  -1.325  0.00  0.00    +0.080 C 
ENDBRANCH   1   7
BRANCH   1   9
ATOM      9  C   LIG    1       -2.893  -4.407   0.528  0.00  0.00    +0.240 C 
BRANCH   9  10
ATOM     10  C   LIG    1       -2.822  -2.880   0.466  0.00  0.00    +0.030 C 
BRANCH  10  11
ATOM     11  C   LIG    1       -1.385  -2.426   0.732  0.00  0.00    +0.020 C 
BRANCH  11  12
ATOM     12  C   LIG    1       -1.313  -0.899   0.670  0.00  0.00    +0.020 C 
BRANCH  12  14
ATOM     13  C   LIG    1        0.196   1.082   0.875  0.00  0.00    +0.020 C 
ATOM     14  C   LIG    1        0.124  -0.445   0.936  0.00  0.00    -0.010 C 
ENDBRANCH  12  14
ENDBRANCH  11  12
ENDBRANCH  10  11
ENDBRANCH   9  10
ENDBRANCH   1   9
TORSDOF 8
ENDMDL
MODEL      521
REMARK  Name = ZINC000202420050
REMARK                            x       y       z     vdW  Elec       q    Type
REMARK                         _______ _______ _______ _____ _____    ______ ____
ROOT
ATOM      1  C   LIG    1       -0.018   1.465   0.010  0.00  0.00    +0.320 C 
ATOM      2  N   LIG    1        0.002  -0.004   0.002  0.00  0.00    -0.380 N 
ATOM      3  H   LIG    1       -0.945  -0.353   0.009  0.00  0.00    +0.420 HD
ENDROOT
BRANCH   2   4
ATOM      4  C   LIG    1        0.713  -0.491   1.192  0.00  0.00    +0.170 C 
ATOM      5  C   LIG    1       -0.004   0.003   2.451  0.00  0.00    +0.040 C 
ATOM      6  C   LIG    1        0.736  -0.504   3.691  0.00  0.00    +0.030 C 
ATOM      7  C   LIG    1        0.757  -2.034   3.682  0.00  0.00    +0.020 C 
ATOM      8  C   LIG    1        1.473  -2.527   2.423  0.00  0.00    +0.030 C 
ATOM      9  C   LIG    1        0.733  -2.021   1.184  0.00  0.00    +0.040 C 
ENDBRANCH   2   4
BRANCH   2  10
ATOM     10  C   LIG    1        0.690  -0.478  -1.207  0.00  0.00    +0.240 C 
BRANCH  10  11
ATOM     11  C   LIG    1       -0.118  -0.077  -2.443  0.00  0.00    +0.040 C 
BRANCH  11  12
ATOM     12  C   LIG    1        0.598  -0.571  -3.702  0.00  0.00    -0.060 C 
ATOM     13  C   LIG    1        1.991   0.059  -3.776  0.00  0.00    +0.030 C 
ATOM     14  C   LIG    1       -0.209  -0.170  -4.938  0.00  0.00    +0.040 C 
ATOM     15  C   LIG    1        0.729  -2.094  -3.650  0.00  0.00    +0.030 C 
ENDBRANCH  11  12
ENDBRANCH  10  11
ENDBRANCH   2  10
TORSDOF 4
ENDMDL
MODEL      522
REMARK  Name = ZINC000200627429
REMARK                            x       y       z     vdW  Elec       q    Type
REMARK                         _______ _______ _______ _____ _____    ______ ____
ROOT
ATOM      1  N   LIG    1        0.843  -1.960  -1.204  0.00  0.00    -0.380 N 
ATOM      2  H   LIG    1        1.197  -2.177  -0.284  0.00  0.00    +0.420 HD
ENDROOT
BRANCH   1   3
ATOM      3  C   LIG    1        0.733  -0.502  -1.353  0.00  0.00    +0.250 C 
BRANCH   3   5
ATOM      4  C   LIG    1       -0.113   1.593  -0.288  0.00  0.00    +0.060 C 
ATOM      5  C   LIG    1       -0.109   0.066  -0.209  0.00  0.00    +0.020 C 
ENDBRANCH   3   5
ENDBRANCH   1   3
BRANCH   1   6
ATOM      6  C   LIG    1        1.764  -2.488  -2.219  0.00  0.00    +0.280 C 
BRANCH   6   7
ATOM      7  C   LIG    1        3.171  -1.946  -1.963  0.00  0.00    -0.080 C 
ATOM      8  C   LIG    1        4.264  -2.958  -1.610  0.00  0.00    +0.050 C 
ATOM      9  C   LIG    1        4.257  -2.288  -2.986  0.00  0.00    +0.070 C 
ENDBRANCH   6   7
ENDBRANCH   1   6
BRANCH   1  10
ATOM     10  C   LIG    1       -0.481  -2.572  -1.377  0.00  0.00    +0.250 C 
BRANCH  10  11
ATOM     11  C   LIG    1       -0.393  -4.070  -1.078  0.00  0.00    +0.040 C 
BRANCH  11  12
ATOM     12  C   LIG    1       -1.794  -4.684  -1.133  0.00  0.00    -0.060 C 
ATOM     13  C   LIG    1       -2.688  -4.008  -0.091  0.00  0.00    +0.030 C 
ATOM     14  C   LIG    1       -1.706  -6.182  -0.835  0.00  0.00    +0.040 C 
ATOM     15  C   LIG    1       -2.388  -4.475  -2.527  0.00  0.00    +0.030 C 
ENDBRANCH  11  12
ENDBRANCH  10  11
ENDBRANCH   1  10
TORSDOF 7
ENDMDL
MODEL      523
REMARK  Name = ZINC001195963678
REMARK                            x       y       z     vdW  Elec       q    Type
REMARK                         _______ _______ _______ _____ _____    ______ ____
ROOT
ATOM      1  C   LIG    1       -1.357  -1.981   0.125  0.00  0.00    +0.170 C 
ATOM      2  C   LIG    1       -0.682  -2.372   1.438  0.00  0.00    +0.050 C 
ATOM      3  C   LIG    1       -0.631  -3.888   1.590  0.00  0.00    -0.050 C 
ATOM      4  C   LIG    1       -1.987  -4.541   1.397  0.00  0.00    +0.040 C 
ATOM      5  C   LIG    1       -2.818  -4.021   0.239  0.00  0.00    -0.050 C 
ATOM      6  C   LIG    1       -4.283  -4.450   0.473  0.00  0.00    +0.040 C 
ATOM      7  C   LIG    1       -2.367  -4.643  -1.086  0.00  0.00    +0.030 C 
ATOM      8  C   LIG    1       -0.153  -4.199   3.026  0.00  0.00    +0.040 C 
ATOM      9  C   LIG    1        0.406  -4.476   0.628  0.00  0.00    +0.040 C 
ATOM     10  C   LIG    1       -2.793  -2.500   0.136  0.00  0.00    +0.050 C 
ENDROOT
BRANCH   1  11
ATOM     11  N   LIG    1       -1.376  -0.512   0.012  0.00  0.00    -0.390 N 
ATOM     12  C   LIG    1       -2.050  -0.126  -1.234  0.00  0.00    +0.320 C 
ATOM     13  H   LIG    1       -1.873  -0.121   0.799  0.00  0.00    +0.420 HD
BRANCH  11  15
ATOM     14  C   LIG    1       -0.019   1.526   0.010  0.00  0.00    +0.080 C 
ATOM     15  C   LIG    1        0.002  -0.004   0.002  0.00  0.00    +0.240 C 
ENDBRANCH  11  15
ENDBRANCH   1  11
TORSDOF 2
ENDMDL
MODEL      524
REMARK  Name = ZINC001196038550
REMARK                            x       y       z     vdW  Elec       q    Type
REMARK                         _______ _______ _______ _____ _____    ______ ____
ROOT
ATOM      1  N   LIG    1       -4.271  -4.853   0.068  0.00  0.00    -0.380 N 
ATOM      2  H   LIG    1       -4.623  -4.546   0.962  0.00  0.00    +0.420 HD
ENDROOT
BRANCH   1   3
ATOM      3  C   LIG    1       -4.284  -6.321   0.014  0.00  0.00    +0.160 C 
ATOM      4  C   LIG    1       -3.952  -6.885   1.397  0.00  0.00    +0.090 C 
BRANCH   3   5
ATOM      5  C   LIG    1       -3.242  -6.804  -0.997  0.00  0.00    +0.050 C 
ATOM      6  C   LIG    1       -3.661  -6.374  -2.405  0.00  0.00    +0.030 C 
ENDBRANCH   3   5
ENDBRANCH   1   3
BRANCH   1   7
ATOM      7  C   LIG    1       -5.120  -4.316  -1.004  0.00  0.00    +0.230 C 
ATOM      8  C   LIG    1       -6.580  -4.683  -0.729  0.00  0.00    +0.080 C 
ENDBRANCH   1   7
BRANCH   1   9
ATOM      9  C   LIG    1       -2.895  -4.369  -0.109  0.00  0.00    +0.240 C 
BRANCH   9  10
ATOM     10  C   LIG    1       -2.853  -2.857   0.119  0.00  0.00    +0.030 C 
BRANCH  10  11
ATOM     11  C   LIG    1       -1.420  -2.353  -0.065  0.00  0.00    +0.020 C 
BRANCH  11  12
ATOM     12  C   LIG    1       -1.378  -0.840   0.163  0.00  0.00    +0.020 C 
BRANCH  12  14
ATOM     13  C   LIG    1        0.097   1.176   0.208  0.00  0.00    +0.020 C 
ATOM     14  C   LIG    1        0.055  -0.336  -0.021  0.00  0.00    -0.010 C 
ENDBRANCH  12  14
ENDBRANCH  11  12
ENDBRANCH  10  11
ENDBRANCH   9  10
ENDBRANCH   1   9
TORSDOF 8
ENDMDL
MODEL      525
REMARK  Name = ZINC000740875000
REMARK                            x       y       z     vdW  Elec       q    Type
REMARK                         _______ _______ _______ _____ _____    ______ ____
ROOT
ATOM      1  N   LIG    1        2.174  -4.418  -3.743  0.00  0.00    -0.380 N 
ATOM      2  H   LIG    1        3.061  -4.014  -4.002  0.00  0.00    +0.420 HD
ENDROOT
BRANCH   1   3
ATOM      3  C   LIG    1        1.132  -3.947  -4.665  0.00  0.00    +0.160 C 
ATOM      4  C   LIG    1       -0.208  -4.580  -4.287  0.00  0.00    +0.080 C 
ATOM      5  C   LIG    1        1.499  -4.346  -6.096  0.00  0.00    +0.080 C 
ENDBRANCH   1   3
BRANCH   1   6
ATOM      6  C   LIG    1        1.834  -4.015  -2.372  0.00  0.00    +0.240 C 
BRANCH   6   7
ATOM      7  C   LIG    1        1.890  -2.490  -2.261  0.00  0.00    +0.030 C 
BRANCH   7   8
ATOM      8  C   LIG    1        1.446  -2.064  -0.860  0.00  0.00    +0.020 C 
BRANCH   8   9
ATOM      9  C   LIG    1        1.503  -0.539  -0.748  0.00  0.00    +0.020 C 
BRANCH   9  11
ATOM     10  C   LIG    1        1.116   1.411   0.764  0.00  0.00    +0.020 C 
ATOM     11  C   LIG    1        1.059  -0.114   0.653  0.00  0.00    -0.010 C 
ENDBRANCH   9  11
ENDBRANCH   8   9
ENDBRANCH   7   8
ENDBRANCH   6   7
ENDBRANCH   1   6
BRANCH   1  12
ATOM     12  C   LIG    1        2.265  -5.883  -3.814  0.00  0.00    +0.290 C 
BRANCH  12  13
ATOM     13  C   LIG    1        3.095  -6.284  -5.035  0.00  0.00    -0.090 C 
ATOM     14  C   LIG    1        4.391  -7.057  -4.784  0.00  0.00    +0.040 C 
ATOM     15  C   LIG    1        3.176  -7.773  -5.376  0.00  0.00    +0.070 C 
ENDBRANCH  12  13
ENDBRANCH   1  12
TORSDOF 8
ENDMDL
MODEL      526
REMARK  Name = ZINC000740886338
REMARK                            x       y       z     vdW  Elec       q    Type
REMARK                         _______ _______ _______ _____ _____    ______ ____
ROOT
ATOM      1  N   LIG    1        2.416  -4.124   3.623  0.00  0.00    -0.380 N 
ATOM      2  H   LIG    1        3.120  -3.417   3.771  0.00  0.00    +0.420 HD
ENDROOT
BRANCH   1   3
ATOM      3  C   LIG    1        3.065  -5.411   3.341  0.00  0.00    +0.150 C 
ATOM      4  C   LIG    1        4.236  -5.305   2.349  0.00  0.00    +0.050 C 
ATOM      5  C   LIG    1        4.975  -6.321   3.236  0.00  0.00    +0.060 C 
ATOM      6  C   LIG    1        4.101  -5.824   4.399  0.00  0.00    +0.060 C 
ENDBRANCH   1   3
BRANCH   1   7
ATOM      7  C   LIG    1        1.586  -4.248   4.829  0.00  0.00    +0.160 C 
ATOM      8  C   LIG    1        2.484  -4.501   6.042  0.00  0.00    +0.080 C 
ATOM      9  C   LIG    1        0.614  -5.418   4.661  0.00  0.00    +0.080 C 
ENDBRANCH   1   7
BRANCH   1  10
ATOM     10  C   LIG    1        1.570  -3.742   2.484  0.00  0.00    +0.250 C 
BRANCH  10  11
ATOM     11  C   LIG    1        0.953  -2.366   2.746  0.00  0.00    +0.020 C 
BRANCH  11  12
ATOM     12  C   LIG    1        0.176  -1.912   1.509  0.00  0.00    +0.020 C 
BRANCH  12  13
ATOM     13  C   LIG    1       -0.440  -0.536   1.770  0.00  0.00    +0.020 C 
BRANCH  13  15
ATOM     14  C   LIG    1       -1.833   1.294   0.794  0.00  0.00    +0.020 C 
ATOM     15  C   LIG    1       -1.217  -0.082   0.533  0.00  0.00    -0.010 C 
ENDBRANCH  13  15
ENDBRANCH  12  13
ENDBRANCH  11  12
ENDBRANCH  10  11
ENDBRANCH   1  10
TORSDOF 7
ENDMDL
MODEL      527
REMARK  Name = ZINC000740875865
REMARK                            x       y       z     vdW  Elec       q    Type
REMARK                         _______ _______ _______ _____ _____    ______ ____
ROOT
ATOM      1  N   LIG    1        2.167  -4.444  -3.890  0.00  0.00    -0.390 N 
ATOM      2  C   LIG    1        3.546  -3.949  -3.776  0.00  0.00    +0.310 C 
ATOM      3  H   LIG    1        1.777  -4.152  -4.773  0.00  0.00    +0.420 HD
ENDROOT
BRANCH   1   4
ATOM      4  C   LIG    1        1.359  -3.898  -2.792  0.00  0.00    +0.240 C 
BRANCH   4   5
ATOM      5  C   LIG    1        1.257  -2.379  -2.941  0.00  0.00    +0.030 C 
BRANCH   5   6
ATOM      6  C   LIG    1        0.414  -1.810  -1.797  0.00  0.00    +0.020 C 
BRANCH   6   7
ATOM      7  C   LIG    1        0.312  -0.290  -1.946  0.00  0.00    +0.020 C 
BRANCH   7   9
ATOM      8  C   LIG    1       -0.632   1.798  -0.951  0.00  0.00    +0.020 C 
ATOM      9  C   LIG    1       -0.530   0.279  -0.802  0.00  0.00    -0.010 C 
ENDBRANCH   7   9
ENDBRANCH   6   7
ENDBRANCH   5   6
ENDBRANCH   4   5
ENDBRANCH   1   4
BRANCH   1  10
ATOM     10  C   LIG    1        2.167  -5.912  -3.815  0.00  0.00    +0.260 C 
BRANCH  10  11
ATOM     11  C   LIG    1        0.756  -6.436  -4.092  0.00  0.00    -0.020 C 
ATOM     12  C   LIG    1        0.376  -6.213  -5.577  0.00  0.00    +0.010 C 
ATOM     13  C   LIG    1       -0.719  -7.282  -5.814  0.00  0.00    +0.030 C 
ATOM     14  C   LIG    1       -0.233  -8.505  -5.009  0.00  0.00    +0.010 C 
ATOM     15  C   LIG    1        0.704  -7.967  -3.914  0.00  0.00    +0.040 C 
ENDBRANCH  10  11
ENDBRANCH   1  10
TORSDOF 7
ENDMDL
MODEL      528
REMARK  Name = ZINC000740874613
REMARK                            x       y       z     vdW  Elec       q    Type
REMARK                         _______ _______ _______ _____ _____    ______ ____
ROOT
ATOM      1  N   LIG    1       -4.199  -4.644   0.007  0.00  0.00    -0.360 N 
ATOM      2  H   LIG    1       -4.581  -4.306  -0.864  0.00  0.00    +0.420 HD
ENDROOT
BRANCH   1   3
ATOM      3  C   LIG    1       -4.950  -4.064   1.128  0.00  0.00    +0.090 C 
ATOM      4  C   LIG    1       -4.165  -3.247   2.156  0.00  0.00    +0.100 C 
ATOM      5  C   LIG    1       -5.096  -2.541   1.168  0.00  0.00    +0.090 C 
ENDBRANCH   1   3
BRANCH   1   6
ATOM      6  C   LIG    1       -2.787  -4.252   0.108  0.00  0.00    +0.240 C 
BRANCH   6   7
ATOM      7  C   LIG    1       -2.642  -2.771  -0.250  0.00  0.00    +0.030 C 
BRANCH   7   8
ATOM      8  C   LIG    1       -1.159  -2.401  -0.299  0.00  0.00    +0.020 C 
BRANCH   8   9
ATOM      9  C   LIG    1       -1.014  -0.921  -0.657  0.00  0.00    +0.020 C 
BRANCH   9  11
ATOM     10  C   LIG    1        0.615   0.930  -1.063  0.00  0.00    +0.020 C 
ATOM     11  C   LIG    1        0.470  -0.551  -0.705  0.00  0.00    -0.010 C 
ENDBRANCH   9  11
ENDBRANCH   8   9
ENDBRANCH   7   8
ENDBRANCH   6   7
ENDBRANCH   1   6
BRANCH   1  12
ATOM     12  C   LIG    1       -4.305  -6.109   0.052  0.00  0.00    +0.260 C 
BRANCH  12  13
ATOM     13  C   LIG    1       -5.759  -6.522  -0.183  0.00  0.00    -0.030 C 
ATOM     14  C   LIG    1       -5.891  -8.038  -0.021  0.00  0.00    +0.070 C 
ATOM     15  C   LIG    1       -6.180  -6.122  -1.599  0.00  0.00    +0.030 C 
ENDBRANCH  12  13
ENDBRANCH   1  12
TORSDOF 8
ENDMDL
MODEL      529
REMARK  Name = ZINC000740874994
REMARK                            x       y       z     vdW  Elec       q    Type
REMARK                         _______ _______ _______ _____ _____    ______ ____
ROOT
ATOM      1  N   LIG    1        2.268  -4.665   3.680  0.00  0.00    -0.360 N 
ATOM      2  H   LIG    1        1.931  -4.308   4.561  0.00  0.00    +0.420 HD
ENDROOT
BRANCH   1   3
ATOM      3  C   LIG    1        3.672  -4.274   3.499  0.00  0.00    +0.090 C 
ATOM      4  C   LIG    1        4.286  -3.339   4.543  0.00  0.00    +0.100 C 
ATOM      5  C   LIG    1        4.691  -4.814   4.505  0.00  0.00    +0.090 C 
ENDBRANCH   1   3
BRANCH   1   6
ATOM      6  C   LIG    1        1.460  -4.110   2.586  0.00  0.00    +0.250 C 
BRANCH   6   7
ATOM      7  C   LIG    1        1.469  -2.582   2.669  0.00  0.00    +0.030 C 
BRANCH   7   8
ATOM      8  C   LIG    1        0.628  -2.004   1.529  0.00  0.00    +0.020 C 
BRANCH   8   9
ATOM      9  C   LIG    1        0.637  -0.477   1.613  0.00  0.00    +0.020 C 
BRANCH   9  11
ATOM     10  C   LIG    1       -0.195   1.629   0.556  0.00  0.00    +0.020 C 
ATOM     11  C   LIG    1       -0.204   0.101   0.473  0.00  0.00    -0.010 C 
ENDBRANCH   9  11
ENDBRANCH   8   9
ENDBRANCH   7   8
ENDBRANCH   6   7
ENDBRANCH   1   6
BRANCH   1  12
ATOM     12  C   LIG    1        2.162  -6.130   3.672  0.00  0.00    +0.250 C 
BRANCH  12  13
ATOM     13  C   LIG    1        0.727  -6.540   4.006  0.00  0.00    +0.020 C 
BRANCH  13  14
ATOM     14  C   LIG    1        0.649  -8.062   4.142  0.00  0.00    +0.020 C 
ATOM     15  C   LIG    1       -0.787  -8.471   4.476  0.00  0.00    +0.030 C 
ENDBRANCH  13  14
ENDBRANCH  12  13
ENDBRANCH   1  12
TORSDOF 9
ENDMDL
MODEL      530
REMARK  Name = ZINC000741053484
REMARK                            x       y       z     vdW  Elec       q    Type
REMARK                         _______ _______ _______ _____ _____    ______ ____
ROOT
ATOM      1  N   LIG    1        2.261  -4.830   3.509  0.00  0.00    -0.380 N 
ATOM      2  H   LIG    1        3.205  -4.596   3.241  0.00  0.00    +0.420 HD
ENDROOT
BRANCH   1   3
ATOM      3  C   LIG    1        2.138  -6.287   3.646  0.00  0.00    +0.160 C 
ATOM      4  C   LIG    1        3.036  -6.975   2.616  0.00  0.00    +0.080 C 
BRANCH   3   5
ATOM      5  C   LIG    1        0.683  -6.700   3.411  0.00  0.00    -0.020 C 
ATOM      6  C   LIG    1       -0.192  -6.149   4.538  0.00  0.00    +0.030 C 
ATOM      7  C   LIG    1        0.584  -8.227   3.389  0.00  0.00    +0.070 C 
ENDBRANCH   3   5
ENDBRANCH   1   3
BRANCH   1   8
ATOM      8  C   LIG    1        1.943  -4.188   4.791  0.00  0.00    +0.230 C 
ATOM      9  C   LIG    1        3.006  -4.562   5.826  0.00  0.00    +0.080 C 
ENDBRANCH   1   8
BRANCH   1  10
ATOM     10  C   LIG    1        1.328  -4.355   2.478  0.00  0.00    +0.240 C 
BRANCH  10  11
ATOM     11  C   LIG    1        1.572  -2.867   2.217  0.00  0.00    +0.030 C 
BRANCH  11  12
ATOM     12  C   LIG    1        0.600  -2.372   1.144  0.00  0.00    +0.020 C 
BRANCH  12  13
ATOM     13  C   LIG    1        0.844  -0.884   0.882  0.00  0.00    +0.020 C 
BRANCH  13  15
ATOM     14  C   LIG    1        0.116   1.098  -0.453  0.00  0.00    +0.020 C 
ATOM     15  C   LIG    1       -0.128  -0.389  -0.191  0.00  0.00    -0.010 C 
ENDBRANCH  13  15
ENDBRANCH  12  13
ENDBRANCH  11  12
ENDBRANCH  10  11
ENDBRANCH   1  10
TORSDOF 8
ENDMDL
MODEL      531
REMARK  Name = ZINC000741053485
REMARK                            x       y       z     vdW  Elec       q    Type
REMARK                         _______ _______ _______ _____ _____    ______ ____
ROOT
ATOM      1  N   LIG    1        2.355  -4.685   3.705  0.00  0.00    -0.380 N 
ATOM      2  H   LIG    1        3.327  -4.432   3.803  0.00  0.00    +0.420 HD
ENDROOT
BRANCH   1   3
ATOM      3  C   LIG    1        2.245  -6.138   3.513  0.00  0.00    +0.160 C 
ATOM      4  C   LIG    1        3.111  -6.562   2.325  0.00  0.00    +0.080 C 
BRANCH   3   5
ATOM      5  C   LIG    1        2.723  -6.857   4.776  0.00  0.00    -0.010 C 
ATOM      6  C   LIG    1        4.193  -6.516   5.031  0.00  0.00    +0.040 C 
ATOM      7  C   LIG    1        2.575  -8.368   4.589  0.00  0.00    +0.070 C 
ENDBRANCH   3   5
ENDBRANCH   1   3
BRANCH   1   8
ATOM      8  C   LIG    1        1.622  -4.295   4.917  0.00  0.00    +0.240 C 
ATOM      9  C   LIG    1        0.176  -4.785   4.818  0.00  0.00    +0.070 C 
ENDBRANCH   1   8
BRANCH   1  10
ATOM     10  C   LIG    1        1.783  -3.993   2.542  0.00  0.00    +0.240 C 
BRANCH  10  11
ATOM     11  C   LIG    1        2.009  -2.486   2.684  0.00  0.00    +0.030 C 
BRANCH  11  12
ATOM     12  C   LIG    1        1.413  -1.765   1.473  0.00  0.00    +0.020 C 
BRANCH  12  13
ATOM     13  C   LIG    1        1.639  -0.259   1.615  0.00  0.00    +0.020 C 
BRANCH  13  15
ATOM     14  C   LIG    1        1.269   1.969   0.546  0.00  0.00    +0.020 C 
ATOM     15  C   LIG    1        1.044   0.462   0.404  0.00  0.00    -0.010 C 
ENDBRANCH  13  15
ENDBRANCH  12  13
ENDBRANCH  11  12
ENDBRANCH  10  11
ENDBRANCH   1  10
TORSDOF 8
ENDMDL
MODEL      532
REMARK  Name = ZINC000670261983
REMARK                            x       y       z     vdW  Elec       q    Type
REMARK                         _______ _______ _______ _____ _____    ______ ____
ROOT
ATOM      1  N   LIG    1       -0.206  -0.014  -2.438  0.00  0.00    -0.380 N 
ATOM      2  C   LIG    1        0.465  -0.255  -3.723  0.00  0.00    +0.310 C 
ATOM      3  H   LIG    1       -0.529   0.941  -2.401  0.00  0.00    +0.420 HD
ENDROOT
BRANCH   1   4
ATOM      4  C   LIG    1       -1.351  -0.924  -2.305  0.00  0.00    +0.160 C 
ATOM      5  C   LIG    1       -2.303  -0.437  -1.184  0.00  0.00    +0.040 C 
ATOM      6  C   LIG    1       -3.654  -1.084  -1.578  0.00  0.00    +0.050 C 
ATOM      7  C   LIG    1       -3.683  -0.991  -3.117  0.00  0.00    +0.030 C 
ATOM      8  C   LIG    1       -2.219  -0.889  -3.580  0.00  0.00    +0.040 C 
ENDBRANCH   1   4
BRANCH   1   9
ATOM      9  C   LIG    1        0.740  -0.253  -1.340  0.00  0.00    +0.250 C 
BRANCH   9  11
ATOM     10  C   LIG    1       -0.099   1.859  -0.301  0.00  0.00    +0.030 C 
ATOM     11  C   LIG    1        0.200   0.378  -0.055  0.00  0.00    -0.010 C 
BRANCH  11  12
ATOM     12  C   LIG    1        1.244   0.246   1.056  0.00  0.00    -0.060 C 
ATOM     13  C   LIG    1        2.529   0.963   0.636  0.00  0.00    +0.020 C 
ATOM     14  C   LIG    1        1.542  -1.234   1.302  0.00  0.00    +0.030 C 
ATOM     15  C   LIG    1        0.704   0.877   2.341  0.00  0.00    +0.040 C 
ENDBRANCH  11  12
ENDBRANCH   9  11
ENDBRANCH   1   9
TORSDOF 4
ENDMDL
MODEL      533
REMARK  Name = ZINC000670261982
REMARK                            x       y       z     vdW  Elec       q    Type
REMARK                         _______ _______ _______ _____ _____    ______ ____
ROOT
ATOM      1  N   LIG    1       -0.010  -0.139   2.447  0.00  0.00    -0.380 N 
ATOM      2  C   LIG    1       -1.302  -0.838   2.453  0.00  0.00    +0.310 C 
ATOM      3  H   LIG    1       -0.167   0.858   2.452  0.00  0.00    +0.420 HD
ENDROOT
BRANCH   1   4
ATOM      4  C   LIG    1        0.757  -0.519   3.640  0.00  0.00    +0.160 C 
ATOM      5  C   LIG    1        2.068   0.302   3.726  0.00  0.00    +0.040 C 
ATOM      6  C   LIG    1        2.408   0.246   5.237  0.00  0.00    +0.050 C 
ATOM      7  C   LIG    1        1.037   0.348   5.937  0.00  0.00    +0.030 C 
ATOM      8  C   LIG    1       -0.012  -0.139   4.922  0.00  0.00    +0.040 C 
ENDBRANCH   1   4
BRANCH   1   9
ATOM      9  C   LIG    1        0.742  -0.511   1.242  0.00  0.00    +0.240 C 
BRANCH   9  11
ATOM     10  C   LIG    1       -0.019   1.526   0.010  0.00  0.00    +0.050 C 
ATOM     11  C   LIG    1        0.002  -0.004   0.002  0.00  0.00    -0.020 C 
BRANCH  11  12
ATOM     12  C   LIG    1        0.718  -0.497  -1.257  0.00  0.00    -0.060 C 
ATOM     13  C   LIG    1       -0.022   0.009  -2.496  0.00  0.00    +0.040 C 
ATOM     14  C   LIG    1        0.739  -2.027  -1.265  0.00  0.00    +0.030 C 
ATOM     15  C   LIG    1        2.154   0.032  -1.268  0.00  0.00    +0.030 C 
ENDBRANCH  11  12
ENDBRANCH   9  11
ENDBRANCH   1   9
TORSDOF 4
ENDMDL
MODEL      534
REMARK  Name = ZINC000670262825
REMARK                            x       y       z     vdW  Elec       q    Type
REMARK                         _______ _______ _______ _____ _____    ______ ____
ROOT
ATOM      1  C   LIG    1        0.409  -0.292  -0.133  0.00  0.00    +0.160 C 
ATOM      2  C   LIG    1        0.324  -1.826  -0.273  0.00  0.00    +0.070 C 
ATOM      3  C   LIG    1        1.433  -2.328   0.689  0.00  0.00    +0.070 C 
ATOM      4  C   LIG    1        2.517  -1.235   0.513  0.00  0.00    +0.250 C 
ATOM      5  N   LIG    1        1.759   0.030   0.366  0.00  0.00    -0.390 N 
ATOM      6  H   LIG    1        1.692   0.492   1.260  0.00  0.00    +0.420 HD
ENDROOT
BRANCH   1   8
ATOM      7  C   LIG    1       -1.223   0.044  -1.994  0.00  0.00    +0.060 C 
ATOM      8  C   LIG    1        0.186   0.368  -1.495  0.00  0.00    +0.040 C 
ENDBRANCH   1   8
BRANCH   5   9
ATOM      9  C   LIG    1        2.442   0.907  -0.596  0.00  0.00    +0.250 C 
BRANCH   9  10
ATOM     10  C   LIG    1        3.765   1.387   0.003  0.00  0.00    -0.010 C 
ATOM     11  C   LIG    1        4.744   0.214   0.083  0.00  0.00    +0.040 C 
BRANCH  10  12
ATOM     12  C   LIG    1        4.356   2.486  -0.882  0.00  0.00    -0.060 C 
ATOM     13  C   LIG    1        4.603   1.932  -2.287  0.00  0.00    +0.030 C 
ATOM     14  C   LIG    1        5.680   2.966  -0.283  0.00  0.00    +0.040 C 
ATOM     15  C   LIG    1        3.377   3.659  -0.962  0.00  0.00    +0.030 C 
ENDBRANCH  10  12
ENDBRANCH   9  10
ENDBRANCH   5   9
TORSDOF 4
ENDMDL
MODEL      535
REMARK  Name = ZINC000670262252
REMARK                            x       y       z     vdW  Elec       q    Type
REMARK                         _______ _______ _______ _____ _____    ______ ____
ROOT
ATOM      1  N   LIG    1        0.758  -1.808  -1.663  0.00  0.00    -0.360 N 
ATOM      2  H   LIG    1        1.345  -2.108  -0.899  0.00  0.00    +0.420 HD
ENDROOT
BRANCH   1   3
ATOM      3  C   LIG    1        0.919  -0.362  -1.866  0.00  0.00    +0.090 C 
ATOM      4  C   LIG    1        1.625   0.431  -0.764  0.00  0.00    +0.100 C 
ATOM      5  C   LIG    1        2.337   0.166  -2.092  0.00  0.00    +0.090 C 
ENDBRANCH   1   3
BRANCH   1   6
ATOM      6  C   LIG    1       -0.646  -2.105  -1.348  0.00  0.00    +0.250 C 
BRANCH   6   8
ATOM      7  C   LIG    1       -2.477  -1.774   0.320  0.00  0.00    +0.060 C 
ATOM      8  C   LIG    1       -1.014  -1.464  -0.008  0.00  0.00    +0.020 C 
ENDBRANCH   6   8
ENDBRANCH   1   6
BRANCH   1   9
ATOM      9  C   LIG    1        1.146  -2.521  -2.887  0.00  0.00    +0.250 C 
BRANCH   9  10
ATOM     10  C   LIG    1        1.125  -4.029  -2.628  0.00  0.00    -0.020 C 
ATOM     11  C   LIG    1        2.190  -4.382  -1.587  0.00  0.00    +0.050 C 
BRANCH  10  12
ATOM     12  C   LIG    1        1.419  -4.774  -3.931  0.00  0.00    -0.060 C 
ATOM     13  C   LIG    1        0.355  -4.421  -4.972  0.00  0.00    +0.030 C 
ATOM     14  C   LIG    1        1.399  -6.282  -3.672  0.00  0.00    +0.040 C 
ATOM     15  C   LIG    1        2.799  -4.365  -4.453  0.00  0.00    +0.020 C 
ENDBRANCH  10  12
ENDBRANCH   9  10
ENDBRANCH   1   9
TORSDOF 6
ENDMDL
MODEL      536
REMARK  Name = ZINC000670262409
REMARK                            x       y       z     vdW  Elec       q    Type
REMARK                         _______ _______ _______ _____ _____    ______ ____
ROOT
ATOM      1  N   LIG    1        0.767  -0.594   1.282  0.00  0.00    -0.350 N 
ATOM      2  H   LIG    1        1.675  -0.173   1.416  0.00  0.00    +0.420 HD
ENDROOT
BRANCH   1   4
ATOM      3  C   LIG    1        1.114  -0.531  -1.142  0.00  0.00    +0.080 C 
ATOM      4  C   LIG    1        0.195  -0.127   0.012  0.00  0.00    +0.160 C 
ATOM      5  C   LIG    1       -1.184  -0.759  -0.189  0.00  0.00    +0.080 C 
ENDBRANCH   1   4
BRANCH   1   6
ATOM      6  C   LIG    1        0.905  -2.056   1.248  0.00  0.00    +0.090 C 
ATOM      7  C   LIG    1        2.323  -2.631   1.209  0.00  0.00    +0.100 C 
ATOM      8  C   LIG    1        1.488  -2.739   2.487  0.00  0.00    +0.090 C 
ENDBRANCH   1   6
BRANCH   1   9
ATOM      9  C   LIG    1       -0.119  -0.211   2.389  0.00  0.00    +0.250 C 
BRANCH   9  10
ATOM     10  C   LIG    1       -0.142   1.313   2.520  0.00  0.00    -0.020 C 
ATOM     11  C   LIG    1        1.256   1.815   2.886  0.00  0.00    +0.050 C 
BRANCH  10  12
ATOM     12  C   LIG    1       -1.131   1.716   3.615  0.00  0.00    -0.060 C 
ATOM     13  C   LIG    1       -2.530   1.214   3.249  0.00  0.00    +0.030 C 
ATOM     14  C   LIG    1       -1.155   3.240   3.746  0.00  0.00    +0.040 C 
ATOM     15  C   LIG    1       -0.699   1.097   4.946  0.00  0.00    +0.020 C 
ENDBRANCH  10  12
ENDBRANCH   9  10
ENDBRANCH   1   9
TORSDOF 5
ENDMDL
MODEL      537
REMARK  Name = ZINC000670265714
REMARK                            x       y       z     vdW  Elec       q    Type
REMARK                         _______ _______ _______ _____ _____    ______ ____
ROOT
ATOM      1  N   LIG    1       -0.106  -0.240  -2.464  0.00  0.00    -0.390 N 
ATOM      2  C   LIG    1       -1.402  -0.935  -2.315  0.00  0.00    +0.160 C 
ATOM      3  C   LIG    1       -1.786  -1.369  -3.751  0.00  0.00    +0.080 C 
ATOM      4  C   LIG    1       -0.404  -1.751  -4.344  0.00  0.00    +0.070 C 
ATOM      5  C   LIG    1       -1.248  -2.159  -1.409  0.00  0.00    +0.080 C 
ATOM      6  C   LIG    1        0.547  -0.728  -3.693  0.00  0.00    +0.160 C 
ATOM      7  C   LIG    1        1.878  -1.399  -3.349  0.00  0.00    +0.080 C 
ATOM      8  H   LIG    1       -0.261   0.755  -2.534  0.00  0.00    +0.420 HD
ENDROOT
BRANCH   1   9
ATOM      9  C   LIG    1        0.747  -0.528  -1.304  0.00  0.00    +0.250 C 
BRANCH   9  11
ATOM     10  C   LIG    1        0.188   1.645  -0.205  0.00  0.00    +0.050 C 
ATOM     11  C   LIG    1        0.148   0.123  -0.056  0.00  0.00    -0.010 C 
BRANCH  11  12
ATOM     12  C   LIG    1        0.958  -0.291   1.175  0.00  0.00    -0.060 C 
ATOM     13  C   LIG    1        2.408   0.167   1.007  0.00  0.00    +0.030 C 
ATOM     14  C   LIG    1        0.918  -1.813   1.324  0.00  0.00    +0.020 C 
ATOM     15  C   LIG    1        0.359   0.360   2.423  0.00  0.00    +0.040 C 
ENDBRANCH  11  12
ENDBRANCH   9  11
ENDBRANCH   1   9
TORSDOF 3
ENDMDL
MODEL      538
REMARK  Name = ZINC000670262828
REMARK                            x       y       z     vdW  Elec       q    Type
REMARK                         _______ _______ _______ _____ _____    ______ ____
ROOT
ATOM      1  C   LIG    1       -1.251   1.255   1.891  0.00  0.00    +0.160 C 
ATOM      2  C   LIG    1       -1.163   1.432   0.361  0.00  0.00    +0.070 C 
ATOM      3  C   LIG    1        0.258   0.904   0.030  0.00  0.00    +0.080 C 
ATOM      4  C   LIG    1        0.405  -0.257   1.044  0.00  0.00    +0.250 C 
ATOM      5  N   LIG    1       -0.267   0.226   2.274  0.00  0.00    -0.390 N 
ATOM      6  H   LIG    1       -0.737  -0.542   2.728  0.00  0.00    +0.420 HD
ENDROOT
BRANCH   1   8
ATOM      7  C   LIG    1       -2.777   0.759   3.807  0.00  0.00    +0.030 C 
ATOM      8  C   LIG    1       -2.659   0.799   2.282  0.00  0.00    +0.060 C 
ENDBRANCH   1   8
BRANCH   5   9
ATOM      9  C   LIG    1        0.729   0.806   3.185  0.00  0.00    +0.250 C 
BRANCH   9  10
ATOM     10  C   LIG    1        0.086   1.055   4.551  0.00  0.00    -0.020 C 
ATOM     11  C   LIG    1       -0.231  -0.286   5.217  0.00  0.00    +0.050 C 
BRANCH  10  12
ATOM     12  C   LIG    1        1.053   1.847   5.434  0.00  0.00    -0.060 C 
ATOM     13  C   LIG    1        2.346   1.050   5.616  0.00  0.00    +0.030 C 
ATOM     14  C   LIG    1        0.409   2.095   6.799  0.00  0.00    +0.040 C 
ATOM     15  C   LIG    1        1.369   3.187   4.768  0.00  0.00    +0.030 C 
ENDBRANCH  10  12
ENDBRANCH   9  10
ENDBRANCH   5   9
TORSDOF 4
ENDMDL
MODEL      539
REMARK  Name = ZINC000670264654
REMARK                            x       y       z     vdW  Elec       q    Type
REMARK                         _______ _______ _______ _____ _____    ______ ____
ROOT
ATOM      1  N   LIG    1       -1.494  -0.622   0.035  0.00  0.00    -0.380 N 
ATOM      2  H   LIG    1       -2.099  -0.171   0.704  0.00  0.00    +0.420 HD
ENDROOT
BRANCH   1   3
ATOM      3  C   LIG    1       -1.509  -2.073   0.262  0.00  0.00    +0.150 C 
ATOM      4  C   LIG    1       -1.571  -2.463   1.748  0.00  0.00    +0.050 C 
ATOM      5  C   LIG    1       -2.546  -3.578   1.334  0.00  0.00    +0.060 C 
ATOM      6  C   LIG    1       -2.903  -2.705   0.119  0.00  0.00    +0.050 C 
ENDBRANCH   1   3
BRANCH   1   8
ATOM      7  C   LIG    1        0.315  -0.281   1.649  0.00  0.00    +0.080 C 
ATOM      8  C   LIG    1       -0.125  -0.115   0.193  0.00  0.00    +0.250 C 
ENDBRANCH   1   8
BRANCH   1   9
ATOM      9  C   LIG    1       -1.968  -0.335  -1.325  0.00  0.00    +0.250 C 
BRANCH   9  10
ATOM     10  C   LIG    1       -2.097   1.179  -1.512  0.00  0.00    -0.020 C 
ATOM     11  C   LIG    1       -3.147   1.725  -0.542  0.00  0.00    +0.050 C 
BRANCH  10  12
ATOM     12  C   LIG    1       -2.524   1.481  -2.949  0.00  0.00    -0.060 C 
ATOM     13  C   LIG    1       -1.474   0.935  -3.919  0.00  0.00    +0.030 C 
ATOM     14  C   LIG    1       -2.652   2.994  -3.136  0.00  0.00    +0.040 C 
ATOM     15  C   LIG    1       -3.873   0.816  -3.231  0.00  0.00    +0.020 C 
ENDBRANCH  10  12
ENDBRANCH   9  10
ENDBRANCH   1   9
TORSDOF 5
ENDMDL
MODEL      540
REMARK  Name = ZINC000670262408
REMARK                            x       y       z     vdW  Elec       q    Type
REMARK                         _______ _______ _______ _____ _____    ______ ____
ROOT
ATOM      1  N   LIG    1        0.270  -0.583   1.053  0.00  0.00    -0.360 N 
ATOM      2  H   LIG    1       -0.335  -0.132   0.384  0.00  0.00    +0.420 HD
ENDROOT
BRANCH   1   4
ATOM      3  C   LIG    1       -1.500  -2.250   1.343  0.00  0.00    +0.090 C 
ATOM      4  C   LIG    1       -0.011  -2.025   1.075  0.00  0.00    +0.160 C 
ATOM      5  C   LIG    1        0.363  -2.638  -0.276  0.00  0.00    +0.080 C 
ENDBRANCH   1   4
BRANCH   1   6
ATOM      6  C   LIG    1        1.672  -0.363   0.672  0.00  0.00    +0.090 C 
ATOM      7  C   LIG    1        1.953   0.061  -0.771  0.00  0.00    +0.090 C 
ATOM      8  C   LIG    1        2.104   1.072   0.368  0.00  0.00    +0.090 C 
ENDBRANCH   1   6
BRANCH   1   9
ATOM      9  C   LIG    1        0.031  -0.018   2.388  0.00  0.00    +0.250 C 
BRANCH   9  10
ATOM     10  C   LIG    1        0.180   1.504   2.331  0.00  0.00    -0.010 C 
ATOM     11  C   LIG    1       -0.780   2.072   1.284  0.00  0.00    +0.040 C 
BRANCH  10  12
ATOM     12  C   LIG    1       -0.148   2.100   3.701  0.00  0.00    -0.060 C 
ATOM     13  C   LIG    1       -1.587   1.742   4.081  0.00  0.00    +0.020 C 
ATOM     14  C   LIG    1        0.001   3.622   3.644  0.00  0.00    +0.040 C 
ATOM     15  C   LIG    1        0.812   1.533   4.748  0.00  0.00    +0.030 C 
ENDBRANCH  10  12
ENDBRANCH   9  10
ENDBRANCH   1   9
TORSDOF 5
ENDMDL
MODEL      541
REMARK  Name = ZINC000670262826
REMARK                            x       y       z     vdW  Elec       q    Type
REMARK                         _______ _______ _______ _____ _____    ______ ____
ROOT
ATOM      1  C   LIG    1        0.742  -0.511   1.242  0.00  0.00    +0.160 C 
ATOM      2  C   LIG    1        0.840  -2.050   1.201  0.00  0.00    +0.070 C 
ATOM      3  C   LIG    1        0.631  -2.453   2.685  0.00  0.00    +0.080 C 
ATOM      4  C   LIG    1       -0.402  -1.398   3.153  0.00  0.00    +0.240 C 
ATOM      5  N   LIG    1       -0.010  -0.149   2.457  0.00  0.00    -0.390 N 
ATOM      6  H   LIG    1       -0.836   0.372   2.203  0.00  0.00    +0.420 HD
ENDROOT
BRANCH   1   8
ATOM      7  C   LIG    1       -0.019   1.526   0.010  0.00  0.00    +0.030 C 
ATOM      8  C   LIG    1        0.002  -0.004   0.002  0.00  0.00    +0.050 C 
ENDBRANCH   1   8
BRANCH   5   9
ATOM      9  C   LIG    1        0.837   0.664   3.341  0.00  0.00    +0.250 C 
BRANCH   9  10
ATOM     10  C   LIG    1        0.011   1.147   4.535  0.00  0.00    -0.020 C 
ATOM     11  C   LIG    1       -1.088   2.092   4.046  0.00  0.00    +0.050 C 
BRANCH  10  12
ATOM     12  C   LIG    1        0.921   1.888   5.517  0.00  0.00    -0.060 C 
ATOM     13  C   LIG    1        2.020   0.943   6.006  0.00  0.00    +0.030 C 
ATOM     14  C   LIG    1        0.095   2.372   6.711  0.00  0.00    +0.040 C 
ATOM     15  C   LIG    1        1.556   3.091   4.816  0.00  0.00    +0.030 C 
ENDBRANCH  10  12
ENDBRANCH   9  10
ENDBRANCH   5   9
TORSDOF 4
ENDMDL
MODEL      542
REMARK  Name = ZINC000670264653
REMARK                            x       y       z     vdW  Elec       q    Type
REMARK                         _______ _______ _______ _____ _____    ______ ____
ROOT
ATOM      1  N   LIG    1       -1.125  -0.496  -0.115  0.00  0.00    -0.380 N 
ATOM      2  H   LIG    1       -0.262   0.028  -0.125  0.00  0.00    +0.420 HD
ENDROOT
BRANCH   1   3
ATOM      3  C   LIG    1       -1.776  -0.340   1.193  0.00  0.00    +0.150 C 
ATOM      4  C   LIG    1       -0.811  -0.475   2.382  0.00  0.00    +0.050 C 
ATOM      5  C   LIG    1       -1.579   0.685   3.037  0.00  0.00    +0.060 C 
ATOM      6  C   LIG    1       -1.966   1.126   1.615  0.00  0.00    +0.060 C 
ENDBRANCH   1   3
BRANCH   1   8
ATOM      7  C   LIG    1       -0.030  -2.065  -1.644  0.00  0.00    +0.080 C 
ATOM      8  C   LIG    1       -0.837  -1.917  -0.352  0.00  0.00    +0.250 C 
ENDBRANCH   1   8
BRANCH   1   9
ATOM      9  C   LIG    1       -2.016   0.006  -1.169  0.00  0.00    +0.240 C 
BRANCH   9  10
ATOM     10  C   LIG    1       -2.136   1.527  -1.053  0.00  0.00    -0.020 C 
ATOM     11  C   LIG    1       -0.754   2.162  -1.218  0.00  0.00    +0.050 C 
BRANCH  10  12
ATOM     12  C   LIG    1       -3.071   2.049  -2.146  0.00  0.00    -0.050 C 
ATOM     13  C   LIG    1       -2.504   1.686  -3.519  0.00  0.00    +0.020 C 
ATOM     14  C   LIG    1       -3.192   3.570  -2.030  0.00  0.00    +0.040 C 
ATOM     15  C   LIG    1       -4.454   1.414  -1.981  0.00  0.00    +0.030 C 
ENDBRANCH  10  12
ENDBRANCH   9  10
ENDBRANCH   1   9
TORSDOF 5
ENDMDL
MODEL      543
REMARK  Name = ZINC000670262827
REMARK                            x       y       z     vdW  Elec       q    Type
REMARK                         _______ _______ _______ _____ _____    ______ ____
ROOT
ATOM      1  C   LIG    1        0.705  -0.343   1.322  0.00  0.00    +0.160 C 
ATOM      2  C   LIG    1        0.723  -1.883   1.421  0.00  0.00    +0.070 C 
ATOM      3  C   LIG    1        2.135  -2.180   1.989  0.00  0.00    +0.080 C 
ATOM      4  C   LIG    1        2.986  -1.082   1.304  0.00  0.00    +0.250 C 
ATOM      5  N   LIG    1        2.107   0.111   1.269  0.00  0.00    -0.390 N 
ATOM      6  H   LIG    1        2.306   0.702   2.062  0.00  0.00    +0.420 HD
ENDROOT
BRANCH   1   8
ATOM      7  C   LIG    1       -1.497  -0.335   0.143  0.00  0.00    +0.060 C 
ATOM      8  C   LIG    1       -0.030   0.089   0.052  0.00  0.00    +0.040 C 
ENDBRANCH   1   8
BRANCH   5   9
ATOM      9  C   LIG    1        2.335   0.857   0.024  0.00  0.00    +0.240 C 
BRANCH   9  10
ATOM     10  C   LIG    1        3.770   1.389   0.004  0.00  0.00    -0.020 C 
ATOM     11  C   LIG    1        3.950   2.411   1.128  0.00  0.00    +0.050 C 
BRANCH  10  12
ATOM     12  C   LIG    1        4.046   2.058  -1.344  0.00  0.00    -0.060 C 
ATOM     13  C   LIG    1        3.866   1.035  -2.467  0.00  0.00    +0.030 C 
ATOM     14  C   LIG    1        5.481   2.590  -1.364  0.00  0.00    +0.040 C 
ATOM     15  C   LIG    1        3.069   3.217  -1.548  0.00  0.00    +0.030 C 
ENDBRANCH  10  12
ENDBRANCH   9  10
ENDBRANCH   5   9
TORSDOF 4
ENDMDL
MODEL      544
REMARK  Name = ZINC000670262251
REMARK                            x       y       z     vdW  Elec       q    Type
REMARK                         _______ _______ _______ _____ _____    ______ ____
ROOT
ATOM      1  N   LIG    1        0.485  -1.990  -1.452  0.00  0.00    -0.360 N 
ATOM      2  H   LIG    1       -0.290  -2.599  -1.666  0.00  0.00    +0.420 HD
ENDROOT
BRANCH   1   3
ATOM      3  C   LIG    1        1.036  -2.343  -0.136  0.00  0.00    +0.090 C 
ATOM      4  C   LIG    1        0.149  -3.162   0.804  0.00  0.00    +0.090 C 
ATOM      5  C   LIG    1        1.353  -3.817   0.124  0.00  0.00    +0.090 C 
ENDBRANCH   1   3
BRANCH   1   6
ATOM      6  C   LIG    1        0.022  -0.596  -1.430  0.00  0.00    +0.250 C 
BRANCH   6   8
ATOM      7  C   LIG    1       -1.629   0.990  -0.430  0.00  0.00    +0.060 C 
ATOM      8  C   LIG    1       -1.147  -0.462  -0.453  0.00  0.00    +0.020 C 
ENDBRANCH   6   8
ENDBRANCH   1   6
BRANCH   1   9
ATOM      9  C   LIG    1        1.527  -2.145  -2.476  0.00  0.00    +0.250 C 
BRANCH   9  10
ATOM     10  C   LIG    1        1.883  -3.625  -2.621  0.00  0.00    -0.010 C 
ATOM     11  C   LIG    1        0.622  -4.422  -2.962  0.00  0.00    +0.040 C 
BRANCH  10  12
ATOM     12  C   LIG    1        2.912  -3.795  -3.741  0.00  0.00    -0.060 C 
ATOM     13  C   LIG    1        2.323  -3.280  -5.056  0.00  0.00    +0.020 C 
ATOM     14  C   LIG    1        3.268  -5.275  -3.887  0.00  0.00    +0.040 C 
ATOM     15  C   LIG    1        4.173  -2.998  -3.401  0.00  0.00    +0.030 C 
ENDBRANCH  10  12
ENDBRANCH   9  10
ENDBRANCH   1   9
TORSDOF 6
ENDMDL
MODEL      545
REMARK  Name = ZINC000670265715
REMARK                            x       y       z     vdW  Elec       q    Type
REMARK                         _______ _______ _______ _____ _____    ______ ____
ROOT
ATOM      1  N   LIG    1       -0.008  -0.469   2.555  0.00  0.00    -0.390 N 
ATOM      2  C   LIG    1        1.042  -0.549   3.593  0.00  0.00    +0.160 C 
ATOM      3  C   LIG    1        0.299  -1.004   4.874  0.00  0.00    +0.080 C 
ATOM      4  C   LIG    1       -0.743  -1.997   4.296  0.00  0.00    +0.070 C 
ATOM      5  C   LIG    1        2.105  -1.577   3.198  0.00  0.00    +0.080 C 
ATOM      6  C   LIG    1       -1.116  -1.361   2.944  0.00  0.00    +0.160 C 
ATOM      7  C   LIG    1       -1.306  -2.452   1.889  0.00  0.00    +0.080 C 
ATOM      8  H   LIG    1       -0.344   0.479   2.485  0.00  0.00    +0.420 HD
ENDROOT
BRANCH   1   9
ATOM      9  C   LIG    1        0.541  -0.898   1.262  0.00  0.00    +0.240 C 
BRANCH   9  11
ATOM     10  C   LIG    1       -0.229   1.170   0.091  0.00  0.00    +0.040 C 
ATOM     11  C   LIG    1       -0.334  -0.356   0.131  0.00  0.00    -0.010 C 
BRANCH  11  12
ATOM     12  C   LIG    1        0.139  -0.935  -1.203  0.00  0.00    -0.060 C 
ATOM     13  C   LIG    1       -0.737  -0.393  -2.335  0.00  0.00    +0.040 C 
ATOM     14  C   LIG    1        0.033  -2.461  -1.163  0.00  0.00    +0.020 C 
ATOM     15  C   LIG    1        1.595  -0.531  -1.447  0.00  0.00    +0.020 C 
ENDBRANCH  11  12
ENDBRANCH   9  11
ENDBRANCH   1   9
TORSDOF 3
ENDMDL
MODEL      546
REMARK  Name = ZINC000670989235
REMARK                            x       y       z     vdW  Elec       q    Type
REMARK                         _______ _______ _______ _____ _____    ______ ____
ROOT
ATOM      1  C   LIG    1       -2.774  -4.041   0.007  0.00  0.00    +0.220 C 
ATOM      2  C   LIG    1       -4.168  -4.537  -0.140  0.00  0.00    -0.140 C 
ATOM      3  C   LIG    1       -4.957  -5.292   0.532  0.00  0.00    +0.090 C 
ATOM      4  C   LIG    1       -4.488  -6.044   1.760  0.00  0.00    +0.040 C 
ATOM      5  C   LIG    1       -3.708  -7.271   1.261  0.00  0.00    +0.030 C 
ATOM      6  C   LIG    1       -2.603  -6.820   0.309  0.00  0.00    +0.020 C 
ATOM      7  C   LIG    1       -1.643  -5.982   1.128  0.00  0.00    +0.030 C 
ATOM      8  C   LIG    1       -2.110  -4.537   1.299  0.00  0.00    +0.040 C 
ENDROOT
BRANCH   1   9
ATOM      9  N   LIG    1       -2.791  -2.572   0.015  0.00  0.00    -0.380 N 
ATOM     10  C   LIG    1       -3.546  -2.085  -1.147  0.00  0.00    +0.310 C 
ATOM     11  H   LIG    1       -3.230  -2.245   0.862  0.00  0.00    +0.420 HD
BRANCH   9  12
ATOM     12  C   LIG    1       -1.413  -2.066  -0.049  0.00  0.00    +0.240 C 
BRANCH  12  13
ATOM     13  C   LIG    1       -1.422  -0.543   0.100  0.00  0.00    +0.030 C 
BRANCH  13  15
ATOM     14  C   LIG    1        0.005   1.506   0.182  0.00  0.00    +0.030 C 
ATOM     15  C   LIG    1        0.013  -0.016   0.034  0.00  0.00    +0.020 C 
ENDBRANCH  13  15
ENDBRANCH  12  13
ENDBRANCH   9  12
ENDBRANCH   1   9
TORSDOF 4
ENDMDL
MODEL      547
REMARK  Name = ZINC000670989236
REMARK                            x       y       z     vdW  Elec       q    Type
REMARK                         _______ _______ _______ _____ _____    ______ ____
ROOT
ATOM      1  C   LIG    1       -2.828  -4.019  -0.236  0.00  0.00    +0.230 C 
ATOM      2  C   LIG    1       -2.240  -4.725   0.934  0.00  0.00    -0.140 C 
ATOM      3  C   LIG    1       -2.633  -5.613   1.771  0.00  0.00    +0.090 C 
ATOM      4  C   LIG    1       -3.966  -6.315   1.623  0.00  0.00    +0.040 C 
ATOM      5  C   LIG    1       -3.786  -7.389   0.539  0.00  0.00    +0.030 C 
ATOM      6  C   LIG    1       -3.244  -6.744  -0.733  0.00  0.00    +0.020 C 
ATOM      7  C   LIG    1       -4.312  -5.787  -1.222  0.00  0.00    +0.030 C 
ATOM      8  C   LIG    1       -4.279  -4.440  -0.504  0.00  0.00    +0.040 C 
ENDROOT
BRANCH   1   9
ATOM      9  N   LIG    1       -2.791  -2.572   0.015  0.00  0.00    -0.380 N 
ATOM     10  C   LIG    1       -3.348  -1.860  -1.143  0.00  0.00    +0.320 C 
ATOM     11  H   LIG    1       -3.337  -2.359   0.836  0.00  0.00    +0.420 HD
BRANCH   9  12
ATOM     12  C   LIG    1       -1.401  -2.147   0.228  0.00  0.00    +0.240 C 
BRANCH  12  13
ATOM     13  C   LIG    1       -1.374  -0.670   0.626  0.00  0.00    +0.030 C 
BRANCH  13  15
ATOM     14  C   LIG    1        0.101   1.249   1.245  0.00  0.00    +0.030 C 
ATOM     15  C   LIG    1        0.074  -0.228   0.847  0.00  0.00    +0.020 C 
ENDBRANCH  13  15
ENDBRANCH  12  13
ENDBRANCH   9  12
ENDBRANCH   1   9
TORSDOF 4
ENDMDL
MODEL      548
REMARK  Name = ZINC000671308736
REMARK                            x       y       z     vdW  Elec       q    Type
REMARK                         _______ _______ _______ _____ _____    ______ ____
ROOT
ATOM      1  N   LIG    1       -3.264  -0.387  -1.103  0.00  0.00    -0.380 N 
ATOM      2  C   LIG    1       -3.523  -1.833  -1.127  0.00  0.00    +0.310 C 
ATOM      3  H   LIG    1       -2.657  -0.166  -0.329  0.00  0.00    +0.420 HD
ENDROOT
BRANCH   1   4
ATOM      4  C   LIG    1       -4.535   0.335  -0.950  0.00  0.00    +0.160 C 
ATOM      5  C   LIG    1       -5.503  -0.116  -2.010  0.00  0.00    +0.030 C 
ATOM      6  C   LIG    1       -6.431   1.020  -2.482  0.00  0.00    +0.030 C 
ATOM      7  C   LIG    1       -6.942   1.895  -1.322  0.00  0.00    +0.000 C 
ATOM      8  C   LIG    1       -7.331   1.084  -0.116  0.00  0.00    +0.020 C 
ATOM      9  C   LIG    1       -6.124   1.020   0.842  0.00  0.00    +0.020 C 
ATOM     10  C   LIG    1       -5.143   0.026   0.433  0.00  0.00    +0.040 C 
ENDBRANCH   1   4
BRANCH   1  11
ATOM     11  C   LIG    1       -2.621   0.016  -2.361  0.00  0.00    +0.290 C 
BRANCH  11  14
ATOM     12  C   LIG    1       -1.933  -1.550  -4.600  0.00  0.00    +0.080 C 
ATOM     13  C   LIG    1       -0.935  -1.341  -3.491  0.00  0.00    -0.040 C 
ATOM     14  C   LIG    1       -1.254  -0.613  -2.450  0.00  0.00    -0.130 C 
ATOM     15  C   LIG    1        0.432  -1.970  -3.580  0.00  0.00    +0.100 C 
ENDBRANCH  11  14
ENDBRANCH   1  11
TORSDOF 3
ENDMDL
MODEL      549
REMARK  Name = ZINC000748803262
REMARK                            x       y       z     vdW  Elec       q    Type
REMARK                         _______ _______ _______ _____ _____    ______ ____
ROOT
ATOM      1  C   LIG    1       -3.518  -0.551  -1.173  0.00  0.00    +0.160 C 
ATOM      2  C   LIG    1       -4.197   0.142   0.010  0.00  0.00    +0.030 C 
ATOM      3  C   LIG    1       -5.716   0.052  -0.149  0.00  0.00    +0.030 C 
ATOM      4  C   LIG    1       -6.182  -1.361   0.205  0.00  0.00    +0.010 C 
ATOM      5  C   LIG    1       -5.844  -2.312  -0.945  0.00  0.00    +0.000 C 
ATOM      6  C   LIG    1       -6.205  -1.652  -2.277  0.00  0.00    +0.010 C 
ATOM      7  C   LIG    1       -4.927  -1.367  -3.068  0.00  0.00    +0.030 C 
ATOM      8  C   LIG    1       -4.220  -0.148  -2.472  0.00  0.00    +0.040 C 
ENDROOT
BRANCH   1   9
ATOM      9  N   LIG    1       -2.107  -0.147  -1.234  0.00  0.00    -0.390 N 
ATOM     10  C   LIG    1       -1.456  -0.814  -2.369  0.00  0.00    +0.320 C 
ATOM     11  H   LIG    1       -2.048   0.853  -1.352  0.00  0.00    +0.420 HD
BRANCH   9  12
ATOM     12  C   LIG    1       -1.433  -0.534   0.013  0.00  0.00    +0.250 C 
BRANCH  12  14
ATOM     13  C   LIG    1       -0.019   1.526   0.010  0.00  0.00    +0.030 C 
ATOM     14  C   LIG    1        0.002  -0.004   0.002  0.00  0.00    -0.030 C 
ATOM     15  C   LIG    1        0.742  -0.511   1.242  0.00  0.00    +0.070 C 
ENDBRANCH  12  14
ENDBRANCH   9  12
ENDBRANCH   1   9
TORSDOF 3
ENDMDL
MODEL      550
REMARK  Name = ZINC000748982390
REMARK                            x       y       z     vdW  Elec       q    Type
REMARK                         _______ _______ _______ _____ _____    ______ ____
ROOT
ATOM      1  C   LIG    1        1.598  -3.990   2.355  0.00  0.00    +0.160 C 
ATOM      2  C   LIG    1        2.381  -4.377   1.099  0.00  0.00    +0.030 C 
ATOM      3  C   LIG    1        2.855  -5.826   1.220  0.00  0.00    +0.030 C 
ATOM      4  C   LIG    1        1.677  -6.771   0.973  0.00  0.00    +0.010 C 
ATOM      5  C   LIG    1        0.773  -6.793   2.207  0.00  0.00    +0.000 C 
ATOM      6  C   LIG    1        1.634  -6.889   3.468  0.00  0.00    +0.010 C 
ATOM      7  C   LIG    1        1.511  -5.592   4.270  0.00  0.00    +0.030 C 
ATOM      8  C   LIG    1        2.338  -4.496   3.595  0.00  0.00    +0.040 C 
ENDROOT
BRANCH   1   9
ATOM      9  N   LIG    1        1.473  -2.527   2.423  0.00  0.00    -0.380 N 
ATOM     10  C   LIG    1        0.721  -2.155   3.629  0.00  0.00    +0.320 C 
ATOM     11  H   LIG    1        2.393  -2.113   2.459  0.00  0.00    +0.420 HD
BRANCH   9  12
ATOM     12  C   LIG    1        0.763  -2.041   1.233  0.00  0.00    +0.250 C 
BRANCH  12  13
ATOM     13  C   LIG    1        0.742  -0.511   1.242  0.00  0.00    +0.030 C 
BRANCH  13  15
ATOM     14  C   LIG    1       -0.019   1.526   0.010  0.00  0.00    +0.030 C 
ATOM     15  C   LIG    1        0.002  -0.004   0.002  0.00  0.00    +0.020 C 
ENDBRANCH  13  15
ENDBRANCH  12  13
ENDBRANCH   9  12
ENDBRANCH   1   9
TORSDOF 4
ENDMDL
MODEL      551
REMARK  Name = ZINC001201399857
REMARK                            x       y       z     vdW  Elec       q    Type
REMARK                         _______ _______ _______ _____ _____    ______ ____
ROOT
ATOM      1  N   LIG    1        0.096   0.022  -2.501  0.00  0.00    -0.380 N 
ATOM      2  C   LIG    1        1.045   0.920  -1.830  0.00  0.00    +0.310 C 
ATOM      3  H   LIG    1       -0.734   0.538  -2.753  0.00  0.00    +0.420 HD
ENDROOT
BRANCH   1   4
ATOM      4  C   LIG    1       -0.266  -1.075  -1.594  0.00  0.00    +0.160 C 
BRANCH   4   6
ATOM      5  C   LIG    1        1.598  -2.679  -2.037  0.00  0.00    +0.040 C 
ATOM      6  C   LIG    1        1.006  -1.702  -1.019  0.00  0.00    +0.050 C 
ENDBRANCH   4   6
BRANCH   4   7
ATOM      7  C   LIG    1       -1.127  -0.531  -0.453  0.00  0.00    +0.050 C 
ATOM      8  C   LIG    1       -2.462  -0.036  -1.012  0.00  0.00    +0.030 C 
ENDBRANCH   4   7
ENDBRANCH   1   4
BRANCH   1   9
ATOM      9  C   LIG    1        0.716  -0.529  -3.713  0.00  0.00    +0.240 C 
BRANCH   9  10
ATOM     10  C   LIG    1       -0.135  -0.166  -4.932  0.00  0.00    -0.020 C 
ATOM     11  C   LIG    1       -0.207   1.356  -5.069  0.00  0.00    +0.000 C 
ATOM     12  C   LIG    1       -1.058   1.719  -6.287  0.00  0.00    +0.020 C 
ATOM     13  C   LIG    1       -0.425   1.123  -7.547  0.00  0.00    +0.010 C 
ATOM     14  C   LIG    1       -0.353  -0.399  -7.410  0.00  0.00    +0.020 C 
ATOM     15  C   LIG    1        0.498  -0.762  -6.191  0.00  0.00    +0.030 C 
ENDBRANCH   9  10
ENDBRANCH   1   9
TORSDOF 5
ENDMDL
MODEL      552
REMARK  Name = ZINC000112983562
REMARK                            x       y       z     vdW  Elec       q    Type
REMARK                         _______ _______ _______ _____ _____    ______ ____
ROOT
ATOM      1  N   LIG    1       -2.765  -2.553   0.135  0.00  0.00    -0.380 N 
ATOM      2  H   LIG    1       -3.382  -2.414   0.921  0.00  0.00    +0.420 HD
ENDROOT
BRANCH   1   3
ATOM      3  C   LIG    1       -2.247  -3.928   0.156  0.00  0.00    +0.160 C 
ATOM      4  C   LIG    1       -1.358  -4.119   1.387  0.00  0.00    +0.030 C 
ATOM      5  C   LIG    1       -0.818  -5.550   1.410  0.00  0.00    +0.030 C 
ATOM      6  C   LIG    1       -1.988  -6.535   1.467  0.00  0.00    +0.020 C 
ATOM      7  C   LIG    1       -2.876  -6.344   0.236  0.00  0.00    +0.030 C 
ATOM      8  C   LIG    1       -3.416  -4.913   0.213  0.00  0.00    +0.040 C 
ENDBRANCH   1   3
BRANCH   1   9
ATOM      9  C   LIG    1       -3.504  -2.328  -1.114  0.00  0.00    +0.160 C 
ATOM     10  C   LIG    1       -4.983  -2.655  -0.898  0.00  0.00    +0.080 C 
ATOM     11  C   LIG    1       -2.938  -3.231  -2.212  0.00  0.00    +0.080 C 
ENDBRANCH   1   9
BRANCH   1  12
ATOM     12  C   LIG    1       -1.645  -1.606   0.219  0.00  0.00    +0.240 C 
BRANCH  12  13
ATOM     13  C   LIG    1       -2.190  -0.181   0.330  0.00  0.00    +0.030 C 
BRANCH  13  15
ATOM     14  C   LIG    1       -1.574   2.218   0.659  0.00  0.00    +0.030 C 
ATOM     15  C   LIG    1       -1.030   0.793   0.548  0.00  0.00    +0.020 C 
ENDBRANCH  13  15
ENDBRANCH  12  13
ENDBRANCH   1  12
TORSDOF 5
ENDMDL
MODEL      553
REMARK  Name = ZINC001201443017
REMARK                            x       y       z     vdW  Elec       q    Type
REMARK                         _______ _______ _______ _____ _____    ______ ____
ROOT
ATOM      1  N   LIG    1        2.215  -1.135   1.519  0.00  0.00    -0.380 N 
ATOM      2  H   LIG    1        2.759  -1.796   0.984  0.00  0.00    +0.420 HD
ENDROOT
BRANCH   1   3
ATOM      3  C   LIG    1        2.751   0.217   1.317  0.00  0.00    +0.240 C 
ATOM      4  C   LIG    1        2.467   0.670  -0.117  0.00  0.00    +0.080 C 
ENDBRANCH   1   3
BRANCH   1   5
ATOM      5  C   LIG    1        0.816  -1.179   1.076  0.00  0.00    +0.160 C 
BRANCH   5   7
ATOM      6  C   LIG    1        1.065  -3.492   0.164  0.00  0.00    +0.030 C 
ATOM      7  C   LIG    1        0.299  -2.617   1.158  0.00  0.00    +0.050 C 
ENDBRANCH   5   7
BRANCH   5   8
ATOM      8  C   LIG    1       -0.033  -0.280   1.977  0.00  0.00    +0.050 C 
ATOM      9  C   LIG    1        0.021   1.159   1.459  0.00  0.00    +0.030 C 
ENDBRANCH   5   8
ENDBRANCH   1   5
BRANCH   1  10
ATOM     10  C   LIG    1        2.288  -1.483   2.945  0.00  0.00    +0.250 C 
BRANCH  10  11
ATOM     11  C   LIG    1        3.753  -1.643   3.356  0.00  0.00    -0.080 C 
ATOM     12  C   LIG    1        4.588  -2.026   2.132  0.00  0.00    +0.030 C 
ATOM     13  C   LIG    1        3.869  -2.740   4.417  0.00  0.00    +0.070 C 
ATOM     14  C   LIG    1        4.269  -0.322   3.931  0.00  0.00    +0.050 C 
ENDBRANCH  10  11
ENDBRANCH   1  10
TORSDOF 6
ENDMDL
MODEL      554
REMARK  Name = ZINC001201446252
REMARK                            x       y       z     vdW  Elec       q    Type
REMARK                         _______ _______ _______ _____ _____    ______ ____
ROOT
ATOM      1  N   LIG    1        2.027  -3.296   0.223  0.00  0.00    -0.380 N 
ATOM      2  C   LIG    1        2.808  -3.264  -1.021  0.00  0.00    +0.320 C 
ATOM      3  H   LIG    1        1.338  -4.031   0.168  0.00  0.00    +0.420 HD
ENDROOT
BRANCH   1   8
ATOM      4  C   LIG    1       -1.801   0.916   0.914  0.00  0.00    +0.030 C 
ATOM      5  C   LIG    1       -1.098  -0.429   0.719  0.00  0.00    -0.020 C 
ATOM      6  C   LIG    1       -0.284  -0.396  -0.577  0.00  0.00    +0.050 C 
ATOM      7  C   LIG    1        0.418  -1.741  -0.772  0.00  0.00    +0.040 C 
ATOM      8  C   LIG    1        1.353  -2.005   0.410  0.00  0.00    +0.160 C 
ATOM      9  C   LIG    1        0.539  -2.038   1.706  0.00  0.00    +0.040 C 
ATOM     10  C   LIG    1       -0.163  -0.693   1.901  0.00  0.00    +0.040 C 
ENDBRANCH   1   8
BRANCH   1  11
ATOM     11  C   LIG    1        2.925  -3.549   1.358  0.00  0.00    +0.250 C 
BRANCH  11  12
ATOM     12  C   LIG    1        3.411  -4.999   1.310  0.00  0.00    -0.080 C 
ATOM     13  C   LIG    1        2.207  -5.937   1.207  0.00  0.00    +0.040 C 
ATOM     14  C   LIG    1        4.196  -5.316   2.585  0.00  0.00    +0.070 C 
ATOM     15  C   LIG    1        4.316  -5.194   0.092  0.00  0.00    +0.050 C 
ENDBRANCH  11  12
ENDBRANCH   1  11
TORSDOF 3
ENDMDL
MODEL      555
REMARK  Name = ZINC001201440266
REMARK                            x       y       z     vdW  Elec       q    Type
REMARK                         _______ _______ _______ _____ _____    ______ ____
ROOT
ATOM      1  C   LIG    1        1.943  -1.812  -2.229  0.00  0.00    +0.170 C 
ATOM      2  C   LIG    1        3.050  -1.921  -3.281  0.00  0.00    +0.060 C 
ATOM      3  C   LIG    1        3.257  -3.395  -3.643  0.00  0.00    +0.030 C 
ATOM      4  C   LIG    1        3.585  -4.182  -2.371  0.00  0.00    +0.050 C 
ATOM      5  C   LIG    1        2.459  -3.988  -1.354  0.00  0.00    +0.240 C 
ATOM      6  N   LIG    1        2.329  -2.563  -1.029  0.00  0.00    -0.380 N 
ATOM      7  H   LIG    1        1.622  -2.444  -0.318  0.00  0.00    +0.420 HD
ENDROOT
BRANCH   1   8
ATOM      8  C   LIG    1        1.732  -0.341  -1.864  0.00  0.00    +0.050 C 
BRANCH   8  10
ATOM      9  C   LIG    1        0.332   1.252  -0.544  0.00  0.00    +0.030 C 
ATOM     10  C   LIG    1        0.543  -0.218  -0.909  0.00  0.00    -0.000 C 
ENDBRANCH   8  10
ENDBRANCH   1   8
BRANCH   6  11
ATOM     11  C   LIG    1        3.614  -2.057  -0.528  0.00  0.00    +0.250 C 
BRANCH  11  12
ATOM     12  C   LIG    1        3.724  -2.339   0.971  0.00  0.00    -0.080 C 
ATOM     13  C   LIG    1        2.490  -1.785   1.687  0.00  0.00    +0.050 C 
ATOM     14  C   LIG    1        4.981  -1.665   1.526  0.00  0.00    +0.070 C 
ATOM     15  C   LIG    1        3.811  -3.849   1.201  0.00  0.00    +0.040 C 
ENDBRANCH  11  12
ENDBRANCH   6  11
TORSDOF 4
ENDMDL
MODEL      556
REMARK  Name = ZINC000585761983
REMARK                            x       y       z     vdW  Elec       q    Type
REMARK                         _______ _______ _______ _____ _____    ______ ____
ROOT
ATOM      1  C   LIG    1        0.757  -0.519   3.640  0.00  0.00    +0.250 C 
ENDROOT
BRANCH   1   2
ATOM      2  N   LIG    1       -0.010  -0.139   2.447  0.00  0.00    -0.390 N 
ATOM      3  C   LIG    1       -1.302  -0.838   2.453  0.00  0.00    +0.310 C 
ATOM      4  H   LIG    1       -0.167   0.858   2.452  0.00  0.00    +0.420 HD
BRANCH   2   5
ATOM      5  C   LIG    1        0.742  -0.511   1.242  0.00  0.00    +0.250 C 
BRANCH   5   7
ATOM      6  C   LIG    1       -0.019   1.526   0.010  0.00  0.00    +0.030 C 
ATOM      7  C   LIG    1        0.002  -0.004   0.002  0.00  0.00    -0.030 C 
ATOM      8  C   LIG    1        0.718  -0.497  -1.257  0.00  0.00    +0.070 C 
ENDBRANCH   5   7
ENDBRANCH   2   5
ENDBRANCH   1   2
BRANCH   1   9
ATOM      9  C   LIG    1        0.034  -0.021   4.893  0.00  0.00    +0.030 C 
BRANCH   9  10
ATOM     10  C   LIG    1        0.833  -0.418   6.136  0.00  0.00    +0.000 C 
ATOM     11  C   LIG    1        2.179   0.310   6.130  0.00  0.00    +0.010 C 
ATOM     12  C   LIG    1        2.979  -0.086   7.372  0.00  0.00    +0.010 C 
ATOM     13  C   LIG    1        2.195   0.301   8.628  0.00  0.00    +0.010 C 
ATOM     14  C   LIG    1        0.850  -0.426   8.634  0.00  0.00    +0.010 C 
ATOM     15  C   LIG    1        0.050  -0.030   7.391  0.00  0.00    +0.030 C 
ENDBRANCH   9  10
ENDBRANCH   1   9
TORSDOF 5
ENDMDL
MODEL      557
REMARK  Name = ZINC000586768536
REMARK                            x       y       z     vdW  Elec       q    Type
REMARK                         _______ _______ _______ _____ _____    ______ ____
ROOT
ATOM      1  C   LIG    1        1.342  -3.966  -2.543  0.00  0.00    +0.250 C 
ENDROOT
BRANCH   1   2
ATOM      2  N   LIG    1        1.427  -2.501  -2.474  0.00  0.00    -0.390 N 
ATOM      3  C   LIG    1        2.837  -2.094  -2.426  0.00  0.00    +0.300 C 
ATOM      4  H   LIG    1        0.988  -2.100  -3.289  0.00  0.00    +0.420 HD
BRANCH   2   5
ATOM      5  C   LIG    1        0.739  -2.027  -1.265  0.00  0.00    +0.250 C 
BRANCH   5   6
ATOM      6  C   LIG    1        0.718  -0.497  -1.257  0.00  0.00    +0.030 C 
BRANCH   6   8
ATOM      7  C   LIG    1       -0.019   1.526   0.010  0.00  0.00    +0.030 C 
ATOM      8  C   LIG    1        0.002  -0.004   0.002  0.00  0.00    +0.020 C 
ENDBRANCH   6   8
ENDBRANCH   5   6
ENDBRANCH   2   5
ENDBRANCH   1   2
BRANCH   1   9
ATOM      9  C   LIG    1        1.948  -4.450  -3.862  0.00  0.00    +0.040 C 
BRANCH   9  10
ATOM     10  C   LIG    1        1.860  -5.976  -3.933  0.00  0.00    +0.000 C 
ATOM     11  C   LIG    1        0.391  -6.401  -3.983  0.00  0.00    +0.010 C 
ATOM     12  C   LIG    1        0.303  -7.926  -4.055  0.00  0.00    +0.010 C 
ATOM     13  C   LIG    1        1.019  -8.420  -5.314  0.00  0.00    +0.010 C 
ATOM     14  C   LIG    1        2.489  -7.995  -5.264  0.00  0.00    +0.010 C 
ATOM     15  C   LIG    1        2.576  -6.470  -5.192  0.00  0.00    +0.030 C 
ENDBRANCH   9  10
ENDBRANCH   1   9
TORSDOF 6
ENDMDL
MODEL      558
REMARK  Name = ZINC001201440265
REMARK                            x       y       z     vdW  Elec       q    Type
REMARK                         _______ _______ _______ _____ _____    ______ ____
ROOT
ATOM      1  C   LIG    1        0.665  -1.619  -0.861  0.00  0.00    +0.170 C 
ATOM      2  C   LIG    1        1.792  -1.995  -1.826  0.00  0.00    +0.060 C 
ATOM      3  C   LIG    1        2.254  -3.424  -1.530  0.00  0.00    +0.030 C 
ATOM      4  C   LIG    1        1.056  -4.371  -1.640  0.00  0.00    +0.050 C 
ATOM      5  C   LIG    1       -0.043  -3.908  -0.682  0.00  0.00    +0.250 C 
ATOM      6  N   LIG    1       -0.461  -2.545  -1.034  0.00  0.00    -0.380 N 
ATOM      7  H   LIG    1       -0.767  -2.526  -1.995  0.00  0.00    +0.420 HD
ENDROOT
BRANCH   1   8
ATOM      8  C   LIG    1        0.199  -0.191  -1.153  0.00  0.00    +0.030 C 
BRANCH   8  10
ATOM      9  C   LIG    1        0.931   2.190  -1.344  0.00  0.00    +0.030 C 
ATOM     10  C   LIG    1        1.366   0.777  -0.949  0.00  0.00    +0.030 C 
ENDBRANCH   8  10
ENDBRANCH   1   8
BRANCH   6  11
ATOM     11  C   LIG    1       -1.568  -2.132  -0.161  0.00  0.00    +0.250 C 
BRANCH  11  12
ATOM     12  C   LIG    1       -2.893  -2.607  -0.760  0.00  0.00    -0.080 C 
ATOM     13  C   LIG    1       -3.107  -1.937  -2.119  0.00  0.00    +0.050 C 
ATOM     14  C   LIG    1       -4.041  -2.231   0.180  0.00  0.00    +0.070 C 
ATOM     15  C   LIG    1       -2.858  -4.125  -0.940  0.00  0.00    +0.050 C 
ENDBRANCH  11  12
ENDBRANCH   6  11
TORSDOF 4
ENDMDL
MODEL      559
REMARK  Name = ZINC001201482060
REMARK                            x       y       z     vdW  Elec       q    Type
REMARK                         _______ _______ _______ _____ _____    ______ ____
ROOT
ATOM      1  C   LIG    1       -4.657   0.349  -1.056  0.00  0.00    -0.030 C 
ATOM      2  C   LIG    1       -4.258   1.797  -1.349  0.00  0.00    +0.070 C 
ENDROOT
BRANCH   1   3
ATOM      3  C   LIG    1       -3.397  -0.500  -0.875  0.00  0.00    +0.010 C 
BRANCH   3   4
ATOM      4  C   LIG    1       -2.640  -0.029   0.368  0.00  0.00    +0.060 C 
BRANCH   4   7
ATOM      5  C   LIG    1       -0.119   1.214   0.563  0.00  0.00    +0.080 C 
ATOM      6  C   LIG    1       -0.227  -0.288   0.637  0.00  0.00    -0.110 C 
ATOM      7  C   LIG    1       -1.399  -0.866   0.547  0.00  0.00    -0.080 C 
ATOM      8  C   LIG    1        1.014  -1.124   0.816  0.00  0.00    +0.070 C 
ENDBRANCH   4   7
ENDBRANCH   3   4
ENDBRANCH   1   3
BRANCH   1   9
ATOM      9  C   LIG    1       -5.478  -0.200  -2.225  0.00  0.00    +0.250 C 
BRANCH   9  10
ATOM     10  N   LIG    1       -5.974  -1.541  -1.887  0.00  0.00    -0.390 N 
ATOM     11  C   LIG    1       -6.910  -1.448  -0.758  0.00  0.00    +0.310 C 
ATOM     12  H   LIG    1       -5.197  -2.132  -1.632  0.00  0.00    +0.420 HD
BRANCH  10  13
ATOM     13  C   LIG    1       -6.665  -2.115  -3.050  0.00  0.00    +0.160 C 
ATOM     14  C   LIG    1       -7.181  -3.511  -2.698  0.00  0.00    +0.090 C 
ATOM     15  C   LIG    1       -5.691  -2.212  -4.225  0.00  0.00    +0.080 C 
ENDBRANCH  10  13
ENDBRANCH   9  10
ENDBRANCH   1   9
TORSDOF 6
ENDMDL
MODEL      560
REMARK  Name = ZINC001201482103
REMARK                            x       y       z     vdW  Elec       q    Type
REMARK                         _______ _______ _______ _____ _____    ______ ____
ROOT
ATOM      1  C   LIG    1        0.934  -4.534  -2.165  0.00  0.00    -0.030 C 
ATOM      2  C   LIG    1       -0.303  -5.117  -2.852  0.00  0.00    +0.070 C 
ENDROOT
BRANCH   1   3
ATOM      3  C   LIG    1        0.768  -3.020  -2.015  0.00  0.00    +0.250 C 
BRANCH   3   4
ATOM      4  N   LIG    1        1.891  -2.479  -1.239  0.00  0.00    -0.390 N 
ATOM      5  C   LIG    1        1.844  -3.013   0.129  0.00  0.00    +0.300 C 
ATOM      6  H   LIG    1        2.761  -2.747  -1.674  0.00  0.00    +0.420 HD
BRANCH   4   7
ATOM      7  C   LIG    1        1.796  -1.014  -1.196  0.00  0.00    +0.250 C 
BRANCH   7   9
ATOM      8  C   LIG    1        2.931   1.084  -0.451  0.00  0.00    +0.060 C 
ATOM      9  C   LIG    1        3.030  -0.442  -0.495  0.00  0.00    +0.020 C 
ENDBRANCH   7   9
ENDBRANCH   4   7
ENDBRANCH   3   4
ENDBRANCH   1   3
BRANCH   1  10
ATOM     10  C   LIG    1        2.174  -4.829  -3.011  0.00  0.00    +0.010 C 
BRANCH  10  11
ATOM     11  C   LIG    1        2.412  -6.340  -3.058  0.00  0.00    +0.060 C 
BRANCH  11  12
ATOM     12  C   LIG    1        3.633  -6.631  -3.891  0.00  0.00    -0.080 C 
ATOM     13  C   LIG    1        4.661  -7.241  -3.355  0.00  0.00    -0.110 C 
ATOM     14  C   LIG    1        5.882  -7.533  -4.189  0.00  0.00    +0.080 C 
ATOM     15  C   LIG    1        4.622  -7.652  -1.906  0.00  0.00    +0.070 C 
ENDBRANCH  11  12
ENDBRANCH  10  11
ENDBRANCH   1  10
TORSDOF 7
ENDMDL
MODEL      561
REMARK  Name = ZINC001201482102
REMARK                            x       y       z     vdW  Elec       q    Type
REMARK                         _______ _______ _______ _____ _____    ______ ____
ROOT
ATOM      1  C   LIG    1        1.495  -3.188  -3.449  0.00  0.00    -0.030 C 
ATOM      2  C   LIG    1        2.017  -3.327  -2.018  0.00  0.00    +0.040 C 
ENDROOT
BRANCH   1   3
ATOM      3  C   LIG    1        1.566  -1.722  -3.878  0.00  0.00    +0.250 C 
BRANCH   3   4
ATOM      4  N   LIG    1        0.650  -0.924  -3.051  0.00  0.00    -0.390 N 
ATOM      5  C   LIG    1       -0.734  -1.340  -3.314  0.00  0.00    +0.310 C 
ATOM      6  H   LIG    1        0.865  -1.069  -2.076  0.00  0.00    +0.420 HD
BRANCH   4   7
ATOM      7  C   LIG    1        0.805   0.499  -3.380  0.00  0.00    +0.250 C 
BRANCH   7   9
ATOM      8  C   LIG    1        0.106   2.820  -2.777  0.00  0.00    +0.060 C 
ATOM      9  C   LIG    1       -0.056   1.338  -2.434  0.00  0.00    +0.030 C 
ENDBRANCH   7   9
ENDBRANCH   4   7
ENDBRANCH   3   4
ENDBRANCH   1   3
BRANCH   1  10
ATOM     10  C   LIG    1        2.353  -4.037  -4.390  0.00  0.00    +0.040 C 
BRANCH  10  11
ATOM     11  C   LIG    1        2.183  -5.516  -4.039  0.00  0.00    +0.050 C 
BRANCH  11  12
ATOM     12  C   LIG    1        3.029  -6.352  -4.965  0.00  0.00    -0.080 C 
ATOM     13  C   LIG    1        2.484  -7.331  -5.645  0.00  0.00    -0.110 C 
ATOM     14  C   LIG    1        3.294  -8.076  -6.674  0.00  0.00    +0.070 C 
ATOM     15  C   LIG    1        1.047  -7.712  -5.397  0.00  0.00    +0.080 C 
ENDBRANCH  11  12
ENDBRANCH  10  11
ENDBRANCH   1  10
TORSDOF 7
ENDMDL
MODEL      562
REMARK  Name = ZINC001201482061
REMARK                            x       y       z     vdW  Elec       q    Type
REMARK                         _______ _______ _______ _____ _____    ______ ____
ROOT
ATOM      1  C   LIG    1       -4.634   0.341  -1.134  0.00  0.00    -0.030 C 
ATOM      2  C   LIG    1       -5.419  -0.046   0.121  0.00  0.00    +0.040 C 
ENDROOT
BRANCH   1   3
ATOM      3  C   LIG    1       -3.299  -0.406  -1.150  0.00  0.00    +0.040 C 
BRANCH   3   4
ATOM      4  C   LIG    1       -2.438   0.061   0.026  0.00  0.00    +0.050 C 
BRANCH   4   7
ATOM      5  C   LIG    1       -0.018   1.503   0.010  0.00  0.00    +0.080 C 
ATOM      6  C   LIG    1        0.002  -0.004   0.002  0.00  0.00    -0.120 C 
ATOM      7  C   LIG    1       -1.123  -0.674   0.009  0.00  0.00    -0.080 C 
ATOM      8  C   LIG    1        1.317  -0.740  -0.015  0.00  0.00    +0.070 C 
ENDBRANCH   4   7
ENDBRANCH   3   4
ENDBRANCH   1   3
BRANCH   1   9
ATOM      9  C   LIG    1       -5.443  -0.033  -2.377  0.00  0.00    +0.250 C 
BRANCH   9  10
ATOM     10  N   LIG    1       -6.671   0.773  -2.423  0.00  0.00    -0.390 N 
ATOM     11  C   LIG    1       -6.321   2.189  -2.598  0.00  0.00    +0.310 C 
ATOM     12  H   LIG    1       -7.182   0.657  -1.561  0.00  0.00    +0.420 HD
BRANCH  10  13
ATOM     13  C   LIG    1       -7.504   0.332  -3.549  0.00  0.00    +0.160 C 
ATOM     14  C   LIG    1       -8.783   1.171  -3.597  0.00  0.00    +0.090 C 
ATOM     15  C   LIG    1       -7.868  -1.143  -3.367  0.00  0.00    +0.080 C 
ENDBRANCH  10  13
ENDBRANCH   9  10
ENDBRANCH   1   9
TORSDOF 6
ENDMDL
MODEL      563
REMARK  Name = ZINC000752357007
REMARK                            x       y       z     vdW  Elec       q    Type
REMARK                         _______ _______ _______ _____ _____    ______ ____
ROOT
ATOM      1  N   LIG    1        2.325  -4.554  -3.599  0.00  0.00    -0.380 N 
ATOM      2  C   LIG    1        3.718  -4.253  -3.243  0.00  0.00    +0.310 C 
ATOM      3  H   LIG    1        2.091  -4.092  -4.465  0.00  0.00    +0.420 HD
ENDROOT
BRANCH   1   4
ATOM      4  C   LIG    1        2.163  -6.005  -3.759  0.00  0.00    +0.210 C 
ATOM      5  C   LIG    1        2.623  -6.714  -2.483  0.00  0.00    +0.090 C 
BRANCH   4   6
ATOM      6  C   LIG    1        3.006  -6.486  -4.941  0.00  0.00    -0.180 C 
ATOM      7  C   LIG    1        4.291  -7.255  -4.627  0.00  0.00    +0.050 C 
ATOM      8  C   LIG    1        3.015  -5.564  -6.163  0.00  0.00    +0.090 C 
ATOM      9  C   LIG    1        3.076  -7.993  -5.193  0.00  0.00    +0.080 C 
ENDBRANCH   4   6
ENDBRANCH   1   4
BRANCH   1  10
ATOM     10  C   LIG    1        1.433  -4.076  -2.533  0.00  0.00    +0.250 C 
BRANCH  10  11
ATOM     11  C   LIG    1        1.492  -2.549  -2.466  0.00  0.00    +0.030 C 
BRANCH  11  12
ATOM     12  C   LIG    1        0.564  -2.051  -1.356  0.00  0.00    +0.020 C 
BRANCH  12  13
ATOM     13  C   LIG    1        0.623  -0.524  -1.288  0.00  0.00    +0.020 C 
BRANCH  13  15
ATOM     14  C   LIG    1       -0.246   1.501  -0.111  0.00  0.00    +0.020 C 
ATOM     15  C   LIG    1       -0.305  -0.026  -0.178  0.00  0.00    -0.010 C 
ENDBRANCH  13  15
ENDBRANCH  12  13
ENDBRANCH  11  12
ENDBRANCH  10  11
ENDBRANCH   1  10
TORSDOF 7
ENDMDL
MODEL      564
REMARK  Name = ZINC000752357008
REMARK                            x       y       z     vdW  Elec       q    Type
REMARK                         _______ _______ _______ _____ _____    ______ ____
ROOT
ATOM      1  N   LIG    1        2.163  -4.524  -3.741  0.00  0.00    -0.380 N 
ATOM      2  C   LIG    1        3.574  -4.117  -3.693  0.00  0.00    +0.310 C 
ATOM      3  H   LIG    1        1.725  -4.123  -4.556  0.00  0.00    +0.420 HD
ENDROOT
BRANCH   1   4
ATOM      4  C   LIG    1        2.079  -5.989  -3.810  0.00  0.00    +0.210 C 
ATOM      5  C   LIG    1        0.610  -6.414  -3.860  0.00  0.00    +0.090 C 
BRANCH   4   6
ATOM      6  C   LIG    1        2.795  -6.483  -5.069  0.00  0.00    -0.180 C 
ATOM      7  C   LIG    1        4.093  -7.270  -4.880  0.00  0.00    +0.050 C 
ATOM      8  C   LIG    1        2.697  -5.563  -6.287  0.00  0.00    +0.080 C 
ATOM      9  C   LIG    1        2.819  -7.991  -5.323  0.00  0.00    +0.080 C 
ENDBRANCH   4   6
ENDBRANCH   1   4
BRANCH   1  10
ATOM     10  C   LIG    1        1.476  -4.051  -2.532  0.00  0.00    +0.240 C 
BRANCH  10  11
ATOM     11  C   LIG    1        1.455  -2.521  -2.524  0.00  0.00    +0.030 C 
BRANCH  11  12
ATOM     12  C   LIG    1        0.739  -2.027  -1.265  0.00  0.00    +0.020 C 
BRANCH  12  13
ATOM     13  C   LIG    1        0.718  -0.497  -1.257  0.00  0.00    +0.020 C 
BRANCH  13  15
ATOM     14  C   LIG    1       -0.019   1.526   0.010  0.00  0.00    +0.020 C 
ATOM     15  C   LIG    1        0.002  -0.004   0.002  0.00  0.00    -0.010 C 
ENDBRANCH  13  15
ENDBRANCH  12  13
ENDBRANCH  11  12
ENDBRANCH  10  11
ENDBRANCH   1  10
TORSDOF 7
ENDMDL
MODEL      565
REMARK  Name = ZINC001201511796
REMARK                            x       y       z     vdW  Elec       q    Type
REMARK                         _______ _______ _______ _____ _____    ______ ____
ROOT
ATOM      1  C   LIG    1        0.928  -1.938   1.318  0.00  0.00    +0.170 C 
ATOM      2  C   LIG    1        1.513  -2.345   2.673  0.00  0.00    +0.060 C 
ATOM      3  C   LIG    1        1.518  -3.873   2.783  0.00  0.00    +0.030 C 
ATOM      4  C   LIG    1        2.310  -4.456   1.610  0.00  0.00    +0.050 C 
ATOM      5  C   LIG    1        1.696  -3.971   0.295  0.00  0.00    +0.250 C 
ATOM      6  N   LIG    1        1.746  -2.506   0.239  0.00  0.00    -0.380 N 
ATOM      7  H   LIG    1        2.701  -2.198   0.344  0.00  0.00    +0.420 HD
ENDROOT
BRANCH   1   8
ATOM      8  C   LIG    1        0.921  -0.413   1.204  0.00  0.00    +0.030 C 
BRANCH   8  10
ATOM      9  C   LIG    1        0.051   1.702   2.210  0.00  0.00    +0.030 C 
ATOM     10  C   LIG    1        0.000   0.175   2.275  0.00  0.00    +0.030 C 
ENDBRANCH   8  10
ENDBRANCH   1   8
BRANCH   6  11
ATOM     11  C   LIG    1        1.226  -2.048  -1.056  0.00  0.00    +0.240 C 
BRANCH  11  12
ATOM     12  C   LIG    1        2.150  -2.530  -2.176  0.00  0.00    -0.030 C 
ATOM     13  C   LIG    1        3.518  -1.862  -2.031  0.00  0.00    +0.040 C 
BRANCH  12  14
ATOM     14  C   LIG    1        1.544  -2.162  -3.532  0.00  0.00    +0.020 C 
ATOM     15  C   LIG    1        2.402  -2.752  -4.652  0.00  0.00    +0.030 C 
ENDBRANCH  12  14
ENDBRANCH  11  12
ENDBRANCH   6  11
TORSDOF 5
ENDMDL
MODEL      566
REMARK  Name = ZINC001201499758
REMARK                            x       y       z     vdW  Elec       q    Type
REMARK                         _______ _______ _______ _____ _____    ______ ____
ROOT
ATOM      1  N   LIG    1        0.151  -2.242  -0.962  0.00  0.00    -0.380 N 
ATOM      2  H   LIG    1       -0.722  -2.268  -0.457  0.00  0.00    +0.420 HD
ENDROOT
BRANCH   1   3
ATOM      3  C   LIG    1        1.254  -2.005  -0.022  0.00  0.00    +0.160 C 
ATOM      4  C   LIG    1        0.728  -1.253   1.202  0.00  0.00    +0.080 C 
BRANCH   3   5
ATOM      5  C   LIG    1        2.337  -1.169  -0.707  0.00  0.00    +0.050 C 
ATOM      6  C   LIG    1        3.002  -1.999  -1.807  0.00  0.00    +0.030 C 
ENDBRANCH   3   5
ENDBRANCH   1   3
BRANCH   1   7
ATOM      7  C   LIG    1        0.111  -1.159  -1.954  0.00  0.00    +0.240 C 
BRANCH   7   9
ATOM      8  C   LIG    1       -0.542   1.222  -2.333  0.00  0.00    +0.060 C 
ATOM      9  C   LIG    1       -0.324   0.140  -1.273  0.00  0.00    +0.010 C 
ENDBRANCH   7   9
ENDBRANCH   1   7
BRANCH   1  10
ATOM     10  C   LIG    1        0.358  -3.526  -1.646  0.00  0.00    +0.250 C 
BRANCH  10  11
ATOM     11  C   LIG    1        0.268  -4.666  -0.630  0.00  0.00    -0.030 C 
ATOM     12  C   LIG    1       -1.130  -4.686  -0.009  0.00  0.00    +0.040 C 
BRANCH  11  13
ATOM     13  C   LIG    1        0.532  -5.998  -1.333  0.00  0.00    +0.020 C 
ATOM     14  C   LIG    1        0.565  -7.124  -0.298  0.00  0.00    +0.030 C 
ENDBRANCH  11  13
ENDBRANCH  10  11
ENDBRANCH   1  10
TORSDOF 7
ENDMDL
MODEL      567
REMARK  Name = ZINC001201499760
REMARK                            x       y       z     vdW  Elec       q    Type
REMARK                         _______ _______ _______ _____ _____    ______ ____
ROOT
ATOM      1  N   LIG    1        0.739  -2.035  -1.061  0.00  0.00    -0.390 N 
ATOM      2  H   LIG    1       -0.234  -2.056  -0.796  0.00  0.00    +0.420 HD
ENDROOT
BRANCH   1   3
ATOM      3  C   LIG    1        1.574  -2.270   0.125  0.00  0.00    +0.160 C 
ATOM      4  C   LIG    1        2.919  -1.562  -0.051  0.00  0.00    +0.080 C 
BRANCH   3   5
ATOM      5  C   LIG    1        0.866  -1.720   1.364  0.00  0.00    +0.050 C 
ATOM      6  C   LIG    1       -0.403  -2.532   1.629  0.00  0.00    +0.030 C 
ENDBRANCH   3   5
ENDBRANCH   1   3
BRANCH   1   7
ATOM      7  C   LIG    1        1.062  -0.723  -1.635  0.00  0.00    +0.250 C 
BRANCH   7   9
ATOM      8  C   LIG    1        0.820   1.745  -1.326  0.00  0.00    +0.060 C 
ATOM      9  C   LIG    1        0.640   0.379  -0.661  0.00  0.00    +0.020 C 
ENDBRANCH   7   9
ENDBRANCH   1   7
BRANCH   1  10
ATOM     10  C   LIG    1        0.998  -3.083  -2.058  0.00  0.00    +0.250 C 
BRANCH  10  11
ATOM     11  C   LIG    1        0.501  -4.428  -1.524  0.00  0.00    -0.030 C 
ATOM     12  C   LIG    1       -1.023  -4.393  -1.395  0.00  0.00    +0.040 C 
BRANCH  11  13
ATOM     13  C   LIG    1        0.905  -5.542  -2.493  0.00  0.00    +0.020 C 
ATOM     14  C   LIG    1        0.518  -6.898  -1.901  0.00  0.00    +0.030 C 
ENDBRANCH  11  13
ENDBRANCH  10  11
ENDBRANCH   1  10
TORSDOF 7
ENDMDL
MODEL      568
REMARK  Name = ZINC001201511798
REMARK                            x       y       z     vdW  Elec       q    Type
REMARK                         _______ _______ _______ _____ _____    ______ ____
ROOT
ATOM      1  C   LIG    1        0.294  -1.125   0.761  0.00  0.00    +0.160 C 
ATOM      2  C   LIG    1        0.781  -0.679   2.142  0.00  0.00    +0.060 C 
ATOM      3  C   LIG    1        1.331  -1.891   2.899  0.00  0.00    +0.030 C 
ATOM      4  C   LIG    1        2.446  -2.536   2.070  0.00  0.00    +0.050 C 
ATOM      5  C   LIG    1        1.897  -2.913   0.692  0.00  0.00    +0.240 C 
ATOM      6  N   LIG    1        1.411  -1.707   0.009  0.00  0.00    -0.380 N 
ATOM      7  H   LIG    1        2.160  -1.034  -0.055  0.00  0.00    +0.420 HD
ENDROOT
BRANCH   1   8
ATOM      8  C   LIG    1       -0.257   0.084   0.001  0.00  0.00    +0.030 C 
BRANCH   8  10
ATOM      9  C   LIG    1       -1.974   1.899   0.027  0.00  0.00    +0.030 C 
ATOM     10  C   LIG    1       -1.467   0.648   0.748  0.00  0.00    +0.030 C 
ENDBRANCH   8  10
ENDBRANCH   1   8
BRANCH   6  11
ATOM     11  C   LIG    1        0.956  -2.062  -1.342  0.00  0.00    +0.240 C 
BRANCH  11  12
ATOM     12  C   LIG    1        2.150  -2.530  -2.176  0.00  0.00    -0.020 C 
ATOM     13  C   LIG    1        2.212  -4.059  -2.163  0.00  0.00    +0.040 C 
BRANCH  12  14
ATOM     14  C   LIG    1        1.990  -2.039  -3.616  0.00  0.00    +0.030 C 
ATOM     15  C   LIG    1        3.241  -2.400  -4.420  0.00  0.00    +0.030 C 
ENDBRANCH  12  14
ENDBRANCH  11  12
ENDBRANCH   6  11
TORSDOF 5
ENDMDL
MODEL      569
REMARK  Name = ZINC001201511797
REMARK                            x       y       z     vdW  Elec       q    Type
REMARK                         _______ _______ _______ _____ _____    ______ ____
ROOT
ATOM      1  C   LIG    1        0.763  -2.041   1.233  0.00  0.00    +0.170 C 
ATOM      2  C   LIG    1        1.610  -2.545   2.404  0.00  0.00    +0.060 C 
ATOM      3  C   LIG    1        1.628  -4.076   2.391  0.00  0.00    +0.030 C 
ATOM      4  C   LIG    1        0.188  -4.595   2.451  0.00  0.00    +0.050 C 
ATOM      5  C   LIG    1       -0.606  -4.014   1.278  0.00  0.00    +0.250 C 
ATOM      6  N   LIG    1       -0.608  -2.549   1.363  0.00  0.00    -0.380 N 
ATOM      7  H   LIG    1       -1.177  -2.171   0.620  0.00  0.00    +0.420 HD
ENDROOT
BRANCH   1   8
ATOM      8  C   LIG    1        0.742  -0.511   1.242  0.00  0.00    +0.050 C 
BRANCH   8  10
ATOM      9  C   LIG    1       -0.019   1.526   0.010  0.00  0.00    +0.040 C 
ATOM     10  C   LIG    1        0.002  -0.004   0.002  0.00  0.00    -0.010 C 
ENDBRANCH   8  10
ENDBRANCH   1   8
BRANCH   6  11
ATOM     11  C   LIG    1       -1.161  -2.135   2.659  0.00  0.00    +0.250 C 
BRANCH  11  12
ATOM     12  C   LIG    1       -2.632  -2.548   2.741  0.00  0.00    -0.030 C 
ATOM     13  C   LIG    1       -3.437  -1.777   1.693  0.00  0.00    +0.040 C 
BRANCH  12  14
ATOM     14  C   LIG    1       -3.174  -2.229   4.136  0.00  0.00    +0.020 C 
ATOM     15  C   LIG    1       -4.606  -2.755   4.260  0.00  0.00    +0.030 C 
ENDBRANCH  12  14
ENDBRANCH  11  12
ENDBRANCH   6  11
TORSDOF 5
ENDMDL
MODEL      570
REMARK  Name = ZINC001201499757
REMARK                            x       y       z     vdW  Elec       q    Type
REMARK                         _______ _______ _______ _____ _____    ______ ____
ROOT
ATOM      1  N   LIG    1        0.833  -2.094  -1.203  0.00  0.00    -0.390 N 
ATOM      2  H   LIG    1       -0.136  -2.013  -0.936  0.00  0.00    +0.420 HD
ENDROOT
BRANCH   1   3
ATOM      3  C   LIG    1        1.632  -2.492  -0.036  0.00  0.00    +0.160 C 
ATOM      4  C   LIG    1        3.051  -1.939  -0.176  0.00  0.00    +0.080 C 
BRANCH   3   5
ATOM      5  C   LIG    1        0.990  -1.934   1.236  0.00  0.00    +0.040 C 
ATOM      6  C   LIG    1       -0.365  -2.608   1.461  0.00  0.00    +0.030 C 
ENDBRANCH   3   5
ENDBRANCH   1   3
BRANCH   1   7
ATOM      7  C   LIG    1        1.312  -0.799  -1.705  0.00  0.00    +0.240 C 
BRANCH   7   9
ATOM      8  C   LIG    1        1.374   1.657  -1.250  0.00  0.00    +0.060 C 
ATOM      9  C   LIG    1        1.038   0.286  -0.661  0.00  0.00    +0.020 C 
ENDBRANCH   7   9
ENDBRANCH   1   7
BRANCH   1  10
ATOM     10  C   LIG    1        0.968  -3.108  -2.258  0.00  0.00    +0.250 C 
BRANCH  10  11
ATOM     11  C   LIG    1        0.053  -2.748  -3.430  0.00  0.00    -0.030 C 
ATOM     12  C   LIG    1       -1.402  -2.735  -2.956  0.00  0.00    +0.040 C 
BRANCH  11  13
ATOM     13  C   LIG    1        0.218  -3.786  -4.542  0.00  0.00    +0.020 C 
ATOM     14  C   LIG    1       -0.602  -3.360  -5.763  0.00  0.00    +0.030 C 
ENDBRANCH  11  13
ENDBRANCH  10  11
ENDBRANCH   1  10
TORSDOF 7
ENDMDL
MODEL      571
REMARK  Name = ZINC000673084745
REMARK                            x       y       z     vdW  Elec       q    Type
REMARK                         _______ _______ _______ _____ _____    ______ ____
ROOT
ATOM      1  N   LIG    1       -2.794  -2.566  -0.111  0.00  0.00    -0.380 N 
ATOM      2  C   LIG    1       -3.504  -2.079  -1.301  0.00  0.00    +0.320 C 
ATOM      3  H   LIG    1       -3.266  -2.241   0.719  0.00  0.00    +0.420 HD
ENDROOT
BRANCH   1   4
ATOM      4  C   LIG    1       -2.774  -4.035  -0.119  0.00  0.00    +0.170 C 
ATOM      5  C   LIG    1       -2.034  -4.542   1.121  0.00  0.00    +0.040 C 
ATOM      6  C   LIG    1       -2.013  -6.072   1.112  0.00  0.00    +0.040 C 
ATOM      7  C   LIG    1       -3.449  -6.601   1.123  0.00  0.00    -0.010 C 
ATOM      8  C   LIG    1       -4.189  -6.094  -0.116  0.00  0.00    +0.040 C 
ATOM      9  C   LIG    1       -4.165  -6.108   2.382  0.00  0.00    +0.010 C 
ATOM     10  C   LIG    1       -4.209  -4.565  -0.108  0.00  0.00    +0.040 C 
ENDBRANCH   1   4
BRANCH   1  11
ATOM     11  C   LIG    1       -1.416  -2.058  -0.121  0.00  0.00    +0.240 C 
BRANCH  11  12
ATOM     12  C   LIG    1       -1.433  -0.534   0.013  0.00  0.00    +0.040 C 
BRANCH  12  14
ATOM     13  C   LIG    1       -0.019   1.526   0.010  0.00  0.00    +0.040 C 
ATOM     14  C   LIG    1        0.002  -0.004   0.002  0.00  0.00    -0.010 C 
ATOM     15  C   LIG    1        0.742  -0.511   1.242  0.00  0.00    +0.020 C 
ENDBRANCH  12  14
ENDBRANCH  11  12
ENDBRANCH   1  11
TORSDOF 4
ENDMDL
MODEL      572
REMARK  Name = ZINC000673093303
REMARK                            x       y       z     vdW  Elec       q    Type
REMARK                         _______ _______ _______ _____ _____    ______ ____
ROOT
ATOM      1  N   LIG    1        2.875  -0.547  -2.416  0.00  0.00    -0.380 N 
ATOM      2  C   LIG    1        2.334   0.069  -3.635  0.00  0.00    +0.320 C 
ATOM      3  H   LIG    1        2.824  -1.551  -2.495  0.00  0.00    +0.420 HD
ENDROOT
BRANCH   1   4
ATOM      4  C   LIG    1        4.276  -0.140  -2.242  0.00  0.00    +0.170 C 
ATOM      5  C   LIG    1        4.879  -0.888  -1.084  0.00  0.00    +0.020 C 
ATOM      6  C   LIG    1        5.914  -0.046  -0.313  0.00  0.00    +0.030 C 
ATOM      7  C   LIG    1        6.834   0.768  -1.243  0.00  0.00    +0.000 C 
ATOM      8  C   LIG    1        7.279  -0.019  -2.446  0.00  0.00    +0.020 C 
ATOM      9  C   LIG    1        6.314   0.280  -3.611  0.00  0.00    +0.020 C 
ATOM     10  C   LIG    1        5.076  -0.479  -3.516  0.00  0.00    +0.050 C 
ENDBRANCH   1   4
BRANCH   1  11
ATOM     11  C   LIG    1        2.089  -0.107  -1.255  0.00  0.00    +0.240 C 
BRANCH  11  12
ATOM     12  C   LIG    1        0.667  -0.661  -1.363  0.00  0.00    +0.040 C 
BRANCH  12  14
ATOM     13  C   LIG    1       -0.306   1.319  -0.190  0.00  0.00    +0.020 C 
ATOM     14  C   LIG    1       -0.152  -0.203  -0.154  0.00  0.00    -0.010 C 
ATOM     15  C   LIG    1       -1.534  -0.856  -0.197  0.00  0.00    +0.040 C 
ENDBRANCH  12  14
ENDBRANCH  11  12
ENDBRANCH   1  11
TORSDOF 4
ENDMDL
MODEL      573
REMARK  Name = ZINC001201511799
REMARK                            x       y       z     vdW  Elec       q    Type
REMARK                         _______ _______ _______ _____ _____    ______ ____
ROOT
ATOM      1  C   LIG    1        0.837  -2.316   1.348  0.00  0.00    +0.170 C 
ATOM      2  C   LIG    1        1.570  -2.834   2.587  0.00  0.00    +0.060 C 
ATOM      3  C   LIG    1        1.441  -4.359   2.649  0.00  0.00    +0.030 C 
ATOM      4  C   LIG    1       -0.043  -4.736   2.653  0.00  0.00    +0.050 C 
ATOM      5  C   LIG    1       -0.716  -4.147   1.411  0.00  0.00    +0.250 C 
ATOM      6  N   LIG    1       -0.581  -2.685   1.425  0.00  0.00    -0.380 N 
ATOM      7  H   LIG    1       -1.072  -2.296   0.633  0.00  0.00    +0.420 HD
ENDROOT
BRANCH   1   8
ATOM      8  C   LIG    1        0.964  -0.792   1.281  0.00  0.00    +0.050 C 
BRANCH   8  10
ATOM      9  C   LIG    1        0.467   1.238  -0.088  0.00  0.00    +0.030 C 
ATOM     10  C   LIG    1        0.340  -0.285  -0.021  0.00  0.00    -0.010 C 
ENDBRANCH   8  10
ENDBRANCH   1   8
BRANCH   6  11
ATOM     11  C   LIG    1       -1.157  -2.153   2.667  0.00  0.00    +0.250 C 
BRANCH  11  12
ATOM     12  C   LIG    1       -2.661  -2.435   2.693  0.00  0.00    -0.030 C 
ATOM     13  C   LIG    1       -3.237  -2.004   4.043  0.00  0.00    +0.070 C 
BRANCH  12  14
ATOM     14  C   LIG    1       -3.347  -1.651   1.573  0.00  0.00    +0.000 C 
ATOM     15  C   LIG    1       -4.829  -2.028   1.520  0.00  0.00    +0.040 C 
ENDBRANCH  12  14
ENDBRANCH  11  12
ENDBRANCH   6  11
TORSDOF 5
ENDMDL
MODEL      574
REMARK  Name = ZINC001201499761
REMARK                            x       y       z     vdW  Elec       q    Type
REMARK                         _______ _______ _______ _____ _____    ______ ____
ROOT
ATOM      1  N   LIG    1        0.891  -1.843  -1.341  0.00  0.00    -0.380 N 
ATOM      2  H   LIG    1       -0.075  -2.131  -1.372  0.00  0.00    +0.420 HD
ENDROOT
BRANCH   1   3
ATOM      3  C   LIG    1        1.510  -2.335  -0.103  0.00  0.00    +0.160 C 
ATOM      4  C   LIG    1        3.007  -2.021  -0.122  0.00  0.00    +0.090 C 
BRANCH   3   5
ATOM      5  C   LIG    1        1.307  -3.848   0.003  0.00  0.00    +0.050 C 
ATOM      6  C   LIG    1       -0.188  -4.155   0.115  0.00  0.00    +0.030 C 
ENDBRANCH   3   5
ENDBRANCH   1   3
BRANCH   1   7
ATOM      7  C   LIG    1        0.966  -0.376  -1.377  0.00  0.00    +0.240 C 
BRANCH   7   9
ATOM      8  C   LIG    1        0.237   1.730  -0.248  0.00  0.00    +0.060 C 
ATOM      9  C   LIG    1        0.096   0.206  -0.262  0.00  0.00    +0.020 C 
ENDBRANCH   7   9
ENDBRANCH   1   7
BRANCH   1  10
ATOM     10  C   LIG    1        1.604  -2.398  -2.499  0.00  0.00    +0.240 C 
BRANCH  10  11
ATOM     11  C   LIG    1        0.877  -2.001  -3.785  0.00  0.00    -0.030 C 
ATOM     12  C   LIG    1       -0.518  -2.631  -3.797  0.00  0.00    +0.040 C 
BRANCH  11  13
ATOM     13  C   LIG    1        1.671  -2.497  -4.995  0.00  0.00    +0.020 C 
ATOM     14  C   LIG    1        1.011  -1.994  -6.280  0.00  0.00    +0.030 C 
ENDBRANCH  11  13
ENDBRANCH  10  11
ENDBRANCH   1  10
TORSDOF 7
ENDMDL
MODEL      575
REMARK  Name = ZINC001201538330
REMARK                            x       y       z     vdW  Elec       q    Type
REMARK                         _______ _______ _______ _____ _____    ______ ____
ROOT
ATOM      1  N   LIG    1       -2.534  -3.948  -0.179  0.00  0.00    -0.380 N 
ATOM      2  C   LIG    1       -2.019  -4.421   1.083  0.00  0.00    +0.240 C 
ATOM      3  C   LIG    1       -0.982  -5.516   0.788  0.00  0.00    +0.050 C 
ATOM      4  C   LIG    1       -1.579  -6.829   0.579  0.00  0.00    +0.030 C 
ATOM      5  C   LIG    1       -2.534  -6.817  -0.641  0.00  0.00    +0.030 C 
ATOM      6  C   LIG    1       -3.812  -6.124  -0.251  0.00  0.00    -0.020 C 
ATOM      7  C   LIG    1       -4.971  -6.762  -1.020  0.00  0.00    +0.070 C 
ATOM      8  C   LIG    1       -3.805  -4.613  -0.539  0.00  0.00    +0.250 C 
ATOM      9  H   LIG    1       -1.852  -4.129  -0.901  0.00  0.00    +0.420 HD
ENDROOT
BRANCH   1  10
ATOM     10  C   LIG    1       -2.761  -2.499  -0.090  0.00  0.00    +0.250 C 
BRANCH  10  11
ATOM     11  C   LIG    1       -3.120  -1.953  -1.474  0.00  0.00    -0.030 C 
ATOM     12  C   LIG    1       -1.922  -2.111  -2.412  0.00  0.00    +0.040 C 
BRANCH  11  13
ATOM     13  C   LIG    1       -3.486  -0.472  -1.358  0.00  0.00    +0.040 C 
BRANCH  13  15
ATOM     14  C   LIG    1       -4.330   1.524  -2.602  0.00  0.00    +0.020 C 
ATOM     15  C   LIG    1       -3.964   0.043  -2.717  0.00  0.00    +0.000 C 
ENDBRANCH  13  15
ENDBRANCH  11  13
ENDBRANCH  10  11
ENDBRANCH   1  10
TORSDOF 4
ENDMDL
MODEL      576
REMARK  Name = ZINC001201534485
REMARK                            x       y       z     vdW  Elec       q    Type
REMARK                         _______ _______ _______ _____ _____    ______ ____
ROOT
ATOM      1  N   LIG    1        1.421  -3.988   2.530  0.00  0.00    -0.390 N 
ATOM      2  C   LIG    1        2.408  -4.433   1.537  0.00  0.00    +0.310 C 
ATOM      3  H   LIG    1        0.519  -4.380   2.307  0.00  0.00    +0.420 HD
ENDROOT
BRANCH   1   4
ATOM      4  C   LIG    1        1.834  -4.439   3.866  0.00  0.00    +0.160 C 
ATOM      5  C   LIG    1        0.806  -3.976   4.901  0.00  0.00    +0.040 C 
ATOM      6  C   LIG    1        1.236  -4.445   6.292  0.00  0.00    +0.030 C 
ATOM      7  C   LIG    1        1.325  -5.972   6.310  0.00  0.00    +0.020 C 
ATOM      8  C   LIG    1        2.353  -6.435   5.276  0.00  0.00    +0.030 C 
ATOM      9  C   LIG    1        1.923  -5.966   3.884  0.00  0.00    +0.040 C 
ENDBRANCH   1   4
BRANCH   1  10
ATOM     10  C   LIG    1        1.335  -2.522   2.513  0.00  0.00    +0.250 C 
BRANCH  10  11
ATOM     11  C   LIG    1        0.792  -2.058   1.160  0.00  0.00    -0.030 C 
ATOM     12  C   LIG    1        0.834  -0.531   1.089  0.00  0.00    +0.070 C 
BRANCH  11  13
ATOM     13  C   LIG    1       -0.652  -2.537   1.000  0.00  0.00    +0.000 C 
BRANCH  13  15
ATOM     14  C   LIG    1       -2.599  -2.661  -0.562  0.00  0.00    +0.010 C 
ATOM     15  C   LIG    1       -1.154  -2.183  -0.402  0.00  0.00    +0.010 C 
ENDBRANCH  13  15
ENDBRANCH  11  13
ENDBRANCH  10  11
ENDBRANCH   1  10
TORSDOF 5
ENDMDL
MODEL      577
REMARK  Name = ZINC001201534145
REMARK                            x       y       z     vdW  Elec       q    Type
REMARK                         _______ _______ _______ _____ _____    ______ ____
ROOT
ATOM      1  N   LIG    1       -2.816  -4.065  -0.240  0.00  0.00    -0.370 N 
ATOM      2  C   LIG    1       -2.075  -4.417  -1.438  0.00  0.00    +0.150 C 
ATOM      3  C   LIG    1       -2.220  -5.879  -1.839  0.00  0.00    +0.070 C 
ATOM      4  C   LIG    1       -3.696  -6.270  -1.903  0.00  0.00    +0.030 C 
ATOM      5  C   LIG    1       -4.317  -6.033  -0.527  0.00  0.00    +0.060 C 
ATOM      6  C   LIG    1       -2.421  -3.503  -2.613  0.00  0.00    +0.080 C 
ATOM      7  C   LIG    1       -4.172  -4.572  -0.122  0.00  0.00    +0.150 C 
ATOM      8  C   LIG    1       -5.175  -3.703  -0.881  0.00  0.00    +0.080 C 
ATOM      9  H   LIG    1       -2.283  -4.412   0.568  0.00  0.00    +0.420 HD
ENDROOT
BRANCH   1  10
ATOM     10  C   LIG    1       -2.844  -2.592  -0.110  0.00  0.00    +0.250 C 
BRANCH  10  11
ATOM     11  C   LIG    1       -1.413  -2.063   0.004  0.00  0.00    -0.020 C 
ATOM     12  C   LIG    1       -0.784  -2.572   1.303  0.00  0.00    +0.040 C 
BRANCH  11  13
ATOM     13  C   LIG    1       -1.433  -0.534   0.013  0.00  0.00    +0.040 C 
BRANCH  13  15
ATOM     14  C   LIG    1       -0.019   1.526   0.010  0.00  0.00    +0.020 C 
ATOM     15  C   LIG    1        0.002  -0.004   0.002  0.00  0.00    +0.000 C 
ENDBRANCH  13  15
ENDBRANCH  11  13
ENDBRANCH  10  11
ENDBRANCH   1  10
TORSDOF 4
ENDMDL
MODEL      578
REMARK  Name = ZINC001201538329
REMARK                            x       y       z     vdW  Elec       q    Type
REMARK                         _______ _______ _______ _____ _____    ______ ____
ROOT
ATOM      1  N   LIG    1       -2.810  -4.021  -0.115  0.00  0.00    -0.380 N 
ATOM      2  C   LIG    1       -2.466  -4.529   1.193  0.00  0.00    +0.240 C 
ATOM      3  C   LIG    1       -1.620  -5.810   1.090  0.00  0.00    +0.060 C 
ATOM      4  C   LIG    1       -2.118  -6.763  -0.015  0.00  0.00    +0.010 C 
ATOM      5  C   LIG    1       -3.618  -6.890  -0.060  0.00  0.00    +0.040 C 
ATOM      6  C   LIG    1       -4.190  -5.833  -1.035  0.00  0.00    -0.030 C 
ATOM      7  C   LIG    1       -5.634  -6.199  -1.382  0.00  0.00    +0.070 C 
ATOM      8  C   LIG    1       -4.165  -4.500  -0.440  0.00  0.00    +0.260 C 
ATOM      9  H   LIG    1       -2.152  -4.364  -0.799  0.00  0.00    +0.420 HD
ENDROOT
BRANCH   1  10
ATOM     10  C   LIG    1       -2.792  -2.552  -0.099  0.00  0.00    +0.250 C 
BRANCH  10  11
ATOM     11  C   LIG    1       -1.354  -2.062   0.083  0.00  0.00    -0.030 C 
ATOM     12  C   LIG    1       -1.350  -0.540   0.239  0.00  0.00    +0.070 C 
BRANCH  11  13
ATOM     13  C   LIG    1       -0.523  -2.451  -1.141  0.00  0.00    +0.000 C 
BRANCH  13  15
ATOM     14  C   LIG    1        1.771  -2.462  -2.130  0.00  0.00    +0.010 C 
ATOM     15  C   LIG    1        0.940  -2.072  -0.906  0.00  0.00    +0.010 C 
ENDBRANCH  13  15
ENDBRANCH  11  13
ENDBRANCH  10  11
ENDBRANCH   1  10
TORSDOF 4
ENDMDL
MODEL      579
REMARK  Name = ZINC001201531938
REMARK                            x       y       z     vdW  Elec       q    Type
REMARK                         _______ _______ _______ _____ _____    ______ ____
ROOT
ATOM      1  N   LIG    1       -2.886  -2.616  -0.021  0.00  0.00    -0.380 N 
ATOM      2  C   LIG    1       -3.373  -2.336  -1.377  0.00  0.00    +0.250 C 
ATOM      3  C   LIG    1       -4.829  -2.791  -1.504  0.00  0.00    +0.050 C 
ATOM      4  C   LIG    1       -4.914  -4.295  -1.229  0.00  0.00    +0.050 C 
ATOM      5  C   LIG    1       -4.334  -4.584   0.159  0.00  0.00    +0.010 C 
ATOM      6  C   LIG    1       -5.181  -3.882   1.222  0.00  0.00    +0.050 C 
ATOM      7  C   LIG    1       -2.897  -4.063   0.222  0.00  0.00    +0.170 C 
ATOM      8  C   LIG    1       -2.312  -4.349   1.607  0.00  0.00    +0.080 C 
ATOM      9  H   LIG    1       -3.483  -2.158   0.651  0.00  0.00    +0.420 HD
ENDROOT
BRANCH   1  10
ATOM     10  C   LIG    1       -1.514  -2.107   0.119  0.00  0.00    +0.240 C 
BRANCH  10  11
ATOM     11  C   LIG    1       -1.522  -0.582   0.004  0.00  0.00    -0.020 C 
BRANCH  11  13
ATOM     12  C   LIG    1       -2.446   1.528   0.972  0.00  0.00    +0.040 C 
ATOM     13  C   LIG    1       -2.334   0.013   1.155  0.00  0.00    +0.000 C 
ENDBRANCH  11  13
BRANCH  11  14
ATOM     14  C   LIG    1       -0.085  -0.059   0.069  0.00  0.00    +0.040 C 
ATOM     15  C   LIG    1        0.689  -0.540  -1.159  0.00  0.00    +0.020 C 
ENDBRANCH  11  14
ENDBRANCH  10  11
ENDBRANCH   1  10
TORSDOF 4
ENDMDL
MODEL      580
REMARK  Name = ZINC001201536204
REMARK                            x       y       z     vdW  Elec       q    Type
REMARK                         _______ _______ _______ _____ _____    ______ ____
ROOT
ATOM      1  N   LIG    1       -0.378  -2.194   2.161  0.00  0.00    -0.380 N 
ATOM      2  H   LIG    1        0.538  -1.774   2.209  0.00  0.00    +0.420 HD
ENDROOT
BRANCH   1   3
ATOM      3  C   LIG    1       -1.204  -1.697   3.269  0.00  0.00    +0.240 C 
ATOM      4  C   LIG    1       -0.471  -1.924   4.593  0.00  0.00    +0.080 C 
ENDBRANCH   1   3
BRANCH   1   5
ATOM      5  C   LIG    1       -1.011  -1.843   0.883  0.00  0.00    +0.250 C 
BRANCH   5   6
ATOM      6  C   LIG    1       -0.992  -0.323   0.705  0.00  0.00    -0.020 C 
BRANCH   6   8
ATOM      7  C   LIG    1        0.481   1.687   0.534  0.00  0.00    +0.040 C 
ATOM      8  C   LIG    1        0.455   0.158   0.586  0.00  0.00    +0.000 C 
ENDBRANCH   6   8
BRANCH   6   9
ATOM      9  C   LIG    1       -1.760   0.051  -0.564  0.00  0.00    +0.040 C 
ATOM     10  C   LIG    1       -3.236  -0.316  -0.394  0.00  0.00    +0.020 C 
ENDBRANCH   6   9
ENDBRANCH   5   6
ENDBRANCH   1   5
BRANCH   1  11
ATOM     11  C   LIG    1       -0.253  -3.655   2.260  0.00  0.00    +0.160 C 
BRANCH  11  12
ATOM     12  C   LIG    1        1.028  -4.106   1.554  0.00  0.00    +0.050 C 
ATOM     13  C   LIG    1        2.242  -3.521   2.277  0.00  0.00    +0.040 C 
ENDBRANCH  11  12
BRANCH  11  14
ATOM     14  C   LIG    1       -1.462  -4.316   1.596  0.00  0.00    +0.050 C 
ATOM     15  C   LIG    1       -2.724  -3.996   2.400  0.00  0.00    +0.030 C 
ENDBRANCH  11  14
ENDBRANCH   1  11
TORSDOF 8
ENDMDL
MODEL      581
REMARK  Name = ZINC001201536048
REMARK                            x       y       z     vdW  Elec       q    Type
REMARK                         _______ _______ _______ _____ _____    ______ ____
ROOT
ATOM      1  N   LIG    1        1.043  -2.745  -2.419  0.00  0.00    -0.390 N 
ATOM      2  C   LIG    1        2.457  -2.825  -2.027  0.00  0.00    +0.300 C 
ATOM      3  H   LIG    1        0.949  -2.134  -3.216  0.00  0.00    +0.420 HD
ENDROOT
BRANCH   1   4
ATOM      4  C   LIG    1        0.254  -2.214  -1.300  0.00  0.00    +0.250 C 
BRANCH   4   5
ATOM      5  C   LIG    1        0.649  -0.759  -1.042  0.00  0.00    -0.020 C 
BRANCH   5   7
ATOM      6  C   LIG    1        0.812   1.516  -2.061  0.00  0.00    +0.040 C 
ATOM      7  C   LIG    1        0.305   0.088  -2.268  0.00  0.00    +0.000 C 
ENDBRANCH   5   7
BRANCH   5   8
ATOM      8  C   LIG    1       -0.115  -0.230   0.174  0.00  0.00    +0.040 C 
ATOM      9  C   LIG    1        0.335  -0.985   1.427  0.00  0.00    +0.020 C 
ENDBRANCH   5   8
ENDBRANCH   4   5
ENDBRANCH   1   4
BRANCH   1  10
ATOM     10  C   LIG    1        0.555  -4.086  -2.769  0.00  0.00    +0.260 C 
BRANCH  10  11
ATOM     11  C   LIG    1        1.249  -4.563  -4.047  0.00  0.00    -0.020 C 
ATOM     12  C   LIG    1        2.723  -4.941  -3.755  0.00  0.00    +0.020 C 
ATOM     13  C   LIG    1        3.058  -5.923  -4.905  0.00  0.00    +0.020 C 
ATOM     14  C   LIG    1        1.764  -6.741  -5.093  0.00  0.00    +0.010 C 
ATOM     15  C   LIG    1        0.614  -5.877  -4.548  0.00  0.00    +0.040 C 
ENDBRANCH  10  11
ENDBRANCH   1  10
TORSDOF 6
ENDMDL
MODEL      582
REMARK  Name = ZINC001201523217
REMARK                            x       y       z     vdW  Elec       q    Type
REMARK                         _______ _______ _______ _____ _____    ______ ____
ROOT
ATOM      1  N   LIG    1        1.411  -2.250  -2.858  0.00  0.00    -0.380 N 
ATOM      2  C   LIG    1        2.804  -1.948  -2.635  0.00  0.00    +0.240 C 
ATOM      3  C   LIG    1        3.384  -1.402  -3.950  0.00  0.00    +0.050 C 
ATOM      4  C   LIG    1        3.795  -2.453  -4.874  0.00  0.00    +0.030 C 
ATOM      5  C   LIG    1        2.590  -3.337  -5.282  0.00  0.00    -0.030 C 
ATOM      6  C   LIG    1        2.253  -4.256  -4.139  0.00  0.00    +0.060 C 
ATOM      7  C   LIG    1        2.956  -4.162  -6.517  0.00  0.00    +0.040 C 
ATOM      8  C   LIG    1        1.202  -3.679  -3.175  0.00  0.00    +0.250 C 
ATOM      9  H   LIG    1        1.072  -1.691  -3.626  0.00  0.00    +0.420 HD
ENDROOT
BRANCH   1  10
ATOM     10  C   LIG    1        0.649  -1.913  -1.648  0.00  0.00    +0.250 C 
BRANCH  10  11
ATOM     11  C   LIG    1        0.716  -0.403  -1.408  0.00  0.00    -0.020 C 
BRANCH  11  13
ATOM     12  C   LIG    1        0.199   1.838  -2.385  0.00  0.00    +0.040 C 
ATOM     13  C   LIG    1        0.024   0.328  -2.560  0.00  0.00    +0.000 C 
ENDBRANCH  11  13
BRANCH  11  14
ATOM     14  C   LIG    1        0.012  -0.064  -0.092  0.00  0.00    +0.040 C 
ATOM     15  C   LIG    1        0.792  -0.673   1.075  0.00  0.00    +0.020 C 
ENDBRANCH  11  14
ENDBRANCH  10  11
ENDBRANCH   1  10
TORSDOF 4
ENDMDL
MODEL      583
REMARK  Name = ZINC001201521809
REMARK                            x       y       z     vdW  Elec       q    Type
REMARK                         _______ _______ _______ _____ _____    ______ ____
ROOT
ATOM      1  N   LIG    1        1.525  -2.662  -2.552  0.00  0.00    -0.390 N 
ATOM      2  C   LIG    1        2.941  -2.372  -2.288  0.00  0.00    +0.310 C 
ATOM      3  H   LIG    1        1.237  -2.189  -3.395  0.00  0.00    +0.420 HD
ENDROOT
BRANCH   1   4
ATOM      4  C   LIG    1        1.344  -4.110  -2.714  0.00  0.00    +0.170 C 
ATOM      5  C   LIG    1       -0.131  -4.412  -2.989  0.00  0.00    +0.040 C 
ATOM      6  C   LIG    1       -0.320  -5.920  -3.158  0.00  0.00    +0.030 C 
ATOM      7  C   LIG    1        0.527  -6.412  -4.333  0.00  0.00    +0.020 C 
ATOM      8  C   LIG    1        2.002  -6.110  -4.059  0.00  0.00    +0.030 C 
ATOM      9  C   LIG    1        2.192  -4.602  -3.889  0.00  0.00    +0.040 C 
ENDBRANCH   1   4
BRANCH   1  10
ATOM     10  C   LIG    1        0.711  -2.190  -1.423  0.00  0.00    +0.240 C 
BRANCH  10  11
ATOM     11  C   LIG    1        0.786  -0.664  -1.343  0.00  0.00    -0.010 C 
BRANCH  11  13
ATOM     12  C   LIG    1        0.368   1.462  -2.588  0.00  0.00    +0.040 C 
ATOM     13  C   LIG    1        0.181  -0.056  -2.611  0.00  0.00    +0.000 C 
ENDBRANCH  11  13
BRANCH  11  14
ATOM     14  C   LIG    1        0.004  -0.178  -0.121  0.00  0.00    +0.040 C 
ATOM     15  C   LIG    1        0.695  -0.667   1.153  0.00  0.00    +0.020 C 
ENDBRANCH  11  14
ENDBRANCH  10  11
ENDBRANCH   1  10
TORSDOF 5
ENDMDL
MODEL      584
REMARK  Name = ZINC001201538570
REMARK                            x       y       z     vdW  Elec       q    Type
REMARK                         _______ _______ _______ _____ _____    ______ ____
ROOT
ATOM      1  N   LIG    1        1.407  -3.978   2.510  0.00  0.00    -0.380 N 
ATOM      2  C   LIG    1        2.381  -4.465   1.560  0.00  0.00    +0.240 C 
ATOM      3  C   LIG    1        1.900  -5.761   0.884  0.00  0.00    +0.060 C 
ATOM      4  C   LIG    1        1.217  -6.728   1.870  0.00  0.00    +0.010 C 
ATOM      5  C   LIG    1        1.931  -6.833   3.192  0.00  0.00    -0.020 C 
ATOM      6  C   LIG    1        1.346  -5.786   4.171  0.00  0.00    +0.060 C 
ATOM      7  C   LIG    1        1.736  -8.237   3.768  0.00  0.00    +0.040 C 
ATOM      8  C   LIG    1        1.815  -4.443   3.847  0.00  0.00    +0.260 C 
ATOM      9  H   LIG    1        0.495  -4.345   2.284  0.00  0.00    +0.420 HD
ENDROOT
BRANCH   1  10
ATOM     10  C   LIG    1        1.375  -2.510   2.481  0.00  0.00    +0.250 C 
BRANCH  10  11
ATOM     11  C   LIG    1        0.802  -2.038   1.143  0.00  0.00    -0.030 C 
ATOM     12  C   LIG    1        0.896  -0.514   1.056  0.00  0.00    +0.070 C 
BRANCH  11  13
ATOM     13  C   LIG    1       -0.664  -2.465   1.037  0.00  0.00    +0.000 C 
BRANCH  13  15
ATOM     14  C   LIG    1       -2.666  -2.531  -0.455  0.00  0.00    +0.010 C 
ATOM     15  C   LIG    1       -1.201  -2.104  -0.349  0.00  0.00    +0.010 C 
ENDBRANCH  13  15
ENDBRANCH  11  13
ENDBRANCH  10  11
ENDBRANCH   1  10
TORSDOF 4
ENDMDL
MODEL      585
REMARK  Name = ZINC001201538569
REMARK                            x       y       z     vdW  Elec       q    Type
REMARK                         _______ _______ _______ _____ _____    ______ ____
ROOT
ATOM      1  N   LIG    1        1.627  -4.015   2.394  0.00  0.00    -0.380 N 
ATOM      2  C   LIG    1        2.381  -4.467   1.250  0.00  0.00    +0.240 C 
ATOM      3  C   LIG    1        1.698  -5.730   0.704  0.00  0.00    +0.050 C 
ATOM      4  C   LIG    1        2.096  -6.945   1.403  0.00  0.00    +0.030 C 
ATOM      5  C   LIG    1        1.710  -6.875   2.902  0.00  0.00    -0.030 C 
ATOM      6  C   LIG    1        2.676  -5.963   3.610  0.00  0.00    +0.060 C 
ATOM      7  C   LIG    1        1.779  -8.275   3.516  0.00  0.00    +0.040 C 
ATOM      8  C   LIG    1        2.210  -4.497   3.664  0.00  0.00    +0.250 C 
ATOM      9  H   LIG    1        0.680  -4.354   2.318  0.00  0.00    +0.420 HD
ENDROOT
BRANCH   1  10
ATOM     10  C   LIG    1        1.608  -2.546   2.404  0.00  0.00    +0.250 C 
BRANCH  10  11
ATOM     11  C   LIG    1        0.850  -2.037   1.176  0.00  0.00    -0.020 C 
ATOM     12  C   LIG    1       -0.620  -2.450   1.277  0.00  0.00    +0.040 C 
BRANCH  11  13
ATOM     13  C   LIG    1        0.948  -0.511   1.113  0.00  0.00    +0.040 C 
BRANCH  13  15
ATOM     14  C   LIG    1        0.396   1.514  -0.243  0.00  0.00    +0.020 C 
ATOM     15  C   LIG    1        0.298  -0.012  -0.179  0.00  0.00    +0.000 C 
ENDBRANCH  13  15
ENDBRANCH  11  13
ENDBRANCH  10  11
ENDBRANCH   1  10
TORSDOF 4
ENDMDL
MODEL      586
REMARK  Name = ZINC000590058842
REMARK                            x       y       z     vdW  Elec       q    Type
REMARK                         _______ _______ _______ _____ _____    ______ ____
ROOT
ATOM      1  N   LIG    1       -2.141  -0.103  -1.184  0.00  0.00    -0.380 N 
ATOM      2  H   LIG    1       -1.858  -0.511  -2.062  0.00  0.00    +0.420 HD
ENDROOT
BRANCH   1   3
ATOM      3  C   LIG    1       -1.912   1.347  -1.221  0.00  0.00    +0.160 C 
ATOM      4  C   LIG    1       -0.458   1.625  -1.606  0.00  0.00    +0.090 C 
ATOM      5  C   LIG    1       -2.197   1.944   0.159  0.00  0.00    +0.080 C 
ENDBRANCH   1   3
BRANCH   1   6
ATOM      6  C   LIG    1       -1.355  -0.695  -0.093  0.00  0.00    +0.240 C 
BRANCH   6   8
ATOM      7  C   LIG    1       -0.848  -2.744  -1.430  0.00  0.00    +0.030 C 
ATOM      8  C   LIG    1       -1.483  -2.219  -0.141  0.00  0.00    -0.030 C 
ATOM      9  C   LIG    1       -0.766  -2.829   1.066  0.00  0.00    +0.070 C 
ENDBRANCH   6   8
ENDBRANCH   1   6
BRANCH   1  10
ATOM     10  C   LIG    1       -3.568  -0.368  -0.958  0.00  0.00    +0.250 C 
BRANCH  10  11
ATOM     11  C   LIG    1       -4.375   0.127  -2.161  0.00  0.00    -0.020 C 
ATOM     12  C   LIG    1       -4.092  -0.754  -3.403  0.00  0.00    +0.010 C 
ATOM     13  C   LIG    1       -5.356  -0.538  -4.271  0.00  0.00    +0.030 C 
ATOM     14  C   LIG    1       -6.510  -0.474  -3.249  0.00  0.00    +0.010 C 
ATOM     15  C   LIG    1       -5.886  -0.052  -1.907  0.00  0.00    +0.040 C 
ENDBRANCH  10  11
ENDBRANCH   1  10
TORSDOF 5
ENDMDL
MODEL      587
REMARK  Name = ZINC001201534492
REMARK                            x       y       z     vdW  Elec       q    Type
REMARK                         _______ _______ _______ _____ _____    ______ ____
ROOT
ATOM      1  N   LIG    1       -0.694  -2.123   1.741  0.00  0.00    -0.380 N 
ATOM      2  C   LIG    1       -1.602  -1.690   2.809  0.00  0.00    +0.250 C 
ATOM      3  C   LIG    1       -1.027  -2.095   4.168  0.00  0.00    +0.050 C 
ATOM      4  C   LIG    1       -0.869  -3.618   4.216  0.00  0.00    +0.030 C 
ATOM      5  C   LIG    1        0.021  -4.065   3.052  0.00  0.00    +0.060 C 
ATOM      6  C   LIG    1       -0.595  -3.587   1.735  0.00  0.00    +0.170 C 
ATOM      7  H   LIG    1        0.221  -1.726   1.897  0.00  0.00    +0.420 HD
ENDROOT
BRANCH   6   8
ATOM      8  C   LIG    1        0.290  -4.031   0.569  0.00  0.00    +0.030 C 
ATOM      9  C   LIG    1        0.332  -5.559   0.512  0.00  0.00    +0.060 C 
ENDBRANCH   6   8
BRANCH   1  10
ATOM     10  C   LIG    1       -1.211  -1.664   0.445  0.00  0.00    +0.240 C 
BRANCH  10  11
ATOM     11  C   LIG    1       -1.206  -0.134   0.406  0.00  0.00    -0.020 C 
BRANCH  11  13
ATOM     12  C   LIG    1        0.237   1.899   0.579  0.00  0.00    +0.040 C 
ATOM     13  C   LIG    1        0.237   0.373   0.469  0.00  0.00    +0.000 C 
ENDBRANCH  11  13
BRANCH  11  14
ATOM     14  C   LIG    1       -1.859   0.346  -0.892  0.00  0.00    +0.040 C 
ATOM     15  C   LIG    1       -3.341  -0.034  -0.887  0.00  0.00    +0.020 C 
ENDBRANCH  11  14
ENDBRANCH  10  11
ENDBRANCH   1  10
TORSDOF 5
ENDMDL
MODEL      588
REMARK  Name = ZINC001201531936
REMARK                            x       y       z     vdW  Elec       q    Type
REMARK                         _______ _______ _______ _____ _____    ______ ____
ROOT
ATOM      1  N   LIG    1       -2.885  -2.616  -0.021  0.00  0.00    -0.380 N 
ATOM      2  C   LIG    1       -3.373  -2.337  -1.377  0.00  0.00    +0.250 C 
ATOM      3  C   LIG    1       -4.829  -2.791  -1.504  0.00  0.00    +0.050 C 
ATOM      4  C   LIG    1       -4.914  -4.295  -1.230  0.00  0.00    +0.040 C 
ATOM      5  C   LIG    1       -4.334  -4.584   0.158  0.00  0.00    -0.020 C 
ATOM      6  C   LIG    1       -4.344  -6.093   0.412  0.00  0.00    +0.070 C 
ATOM      7  C   LIG    1       -2.897  -4.064   0.222  0.00  0.00    +0.170 C 
ATOM      8  C   LIG    1       -2.312  -4.349   1.607  0.00  0.00    +0.080 C 
ATOM      9  H   LIG    1       -3.483  -2.159   0.650  0.00  0.00    +0.420 HD
ENDROOT
BRANCH   1  10
ATOM     10  C   LIG    1       -1.514  -2.108   0.119  0.00  0.00    +0.240 C 
BRANCH  10  11
ATOM     11  C   LIG    1       -1.522  -0.582   0.004  0.00  0.00    -0.020 C 
BRANCH  11  13
ATOM     12  C   LIG    1       -2.447   1.527   0.971  0.00  0.00    +0.040 C 
ATOM     13  C   LIG    1       -2.334   0.013   1.155  0.00  0.00    +0.000 C 
ENDBRANCH  11  13
BRANCH  11  14
ATOM     14  C   LIG    1       -0.085  -0.059   0.069  0.00  0.00    +0.040 C 
ATOM     15  C   LIG    1        0.689  -0.540  -1.159  0.00  0.00    +0.020 C 
ENDBRANCH  11  14
ENDBRANCH  10  11
ENDBRANCH   1  10
TORSDOF 4
ENDMDL
MODEL      589
REMARK  Name = ZINC001201531228
REMARK                            x       y       z     vdW  Elec       q    Type
REMARK                         _______ _______ _______ _____ _____    ______ ____
ROOT
ATOM      1  N   LIG    1       -0.843  -2.250   1.768  0.00  0.00    -0.380 N 
ATOM      2  C   LIG    1       -1.622  -1.594   2.825  0.00  0.00    +0.250 C 
ATOM      3  C   LIG    1       -0.917  -1.775   4.171  0.00  0.00    +0.060 C 
ATOM      4  C   LIG    1       -0.793  -3.270   4.479  0.00  0.00    -0.010 C 
ATOM      5  C   LIG    1       -0.044  -3.957   3.334  0.00  0.00    +0.060 C 
ATOM      6  C   LIG    1       -2.190  -3.880   4.618  0.00  0.00    +0.030 C 
ATOM      7  C   LIG    1       -0.783  -3.695   2.020  0.00  0.00    +0.160 C 
ATOM      8  C   LIG    1       -0.038  -4.379   0.872  0.00  0.00    +0.080 C 
ATOM      9  H   LIG    1        0.093  -1.873   1.757  0.00  0.00    +0.420 HD
ENDROOT
BRANCH   1  10
ATOM     10  C   LIG    1       -1.482  -2.007   0.468  0.00  0.00    +0.250 C 
BRANCH  10  11
ATOM     11  C   LIG    1       -1.430  -0.513   0.145  0.00  0.00    -0.020 C 
BRANCH  11  13
ATOM     12  C   LIG    1        0.089   1.438  -0.216  0.00  0.00    +0.040 C 
ATOM     13  C   LIG    1        0.027  -0.080  -0.033  0.00  0.00    +0.000 C 
ENDBRANCH  11  13
BRANCH  11  14
ATOM     14  C   LIG    1       -2.204  -0.242  -1.147  0.00  0.00    +0.040 C 
ATOM     15  C   LIG    1       -3.688  -0.543  -0.925  0.00  0.00    +0.020 C 
ENDBRANCH  11  14
ENDBRANCH  10  11
ENDBRANCH   1  10
TORSDOF 4
ENDMDL
MODEL      590
REMARK  Name = ZINC001201534894
REMARK                            x       y       z     vdW  Elec       q    Type
REMARK                         _______ _______ _______ _____ _____    ______ ____
ROOT
ATOM      1  N   LIG    1        2.010  -2.201  -0.141  0.00  0.00    -0.390 N 
ATOM      2  C   LIG    1        3.322  -1.538   0.012  0.00  0.00    +0.250 C 
ATOM      3  C   LIG    1        4.269  -2.650   0.528  0.00  0.00    +0.080 C 
ATOM      4  C   LIG    1        3.755  -3.887  -0.255  0.00  0.00    +0.070 C 
ATOM      5  C   LIG    1        2.236  -3.647  -0.322  0.00  0.00    +0.160 C 
ATOM      6  H   LIG    1        1.533  -1.828  -0.949  0.00  0.00    +0.420 HD
ENDROOT
BRANCH   5   7
ATOM      7  C   LIG    1        1.698  -4.091  -1.684  0.00  0.00    -0.020 C 
ATOM      8  C   LIG    1        0.195  -3.815  -1.754  0.00  0.00    +0.040 C 
ATOM      9  C   LIG    1        1.950  -5.588  -1.869  0.00  0.00    +0.070 C 
ENDBRANCH   5   7
BRANCH   1  10
ATOM     10  C   LIG    1        1.197  -1.974   1.061  0.00  0.00    +0.250 C 
BRANCH  10  11
ATOM     11  C   LIG    1        0.855  -0.487   1.172  0.00  0.00    -0.020 C 
BRANCH  11  13
ATOM     12  C   LIG    1       -0.267   1.432   0.031  0.00  0.00    +0.040 C 
ATOM     13  C   LIG    1       -0.038  -0.081  -0.002  0.00  0.00    +0.000 C 
ENDBRANCH  11  13
BRANCH  11  14
ATOM     14  C   LIG    1        0.116  -0.231   2.488  0.00  0.00    +0.040 C 
ATOM     15  C   LIG    1        1.057  -0.504   3.663  0.00  0.00    +0.020 C 
ENDBRANCH  11  14
ENDBRANCH  10  11
ENDBRANCH   1  10
TORSDOF 5
ENDMDL
MODEL      591
REMARK  Name = ZINC001201531231
REMARK                            x       y       z     vdW  Elec       q    Type
REMARK                         _______ _______ _______ _____ _____    ______ ____
ROOT
ATOM      1  N   LIG    1       -0.843  -2.250   1.768  0.00  0.00    -0.380 N 
ATOM      2  C   LIG    1       -1.622  -1.594   2.825  0.00  0.00    +0.250 C 
ATOM      3  C   LIG    1       -0.917  -1.775   4.171  0.00  0.00    +0.060 C 
ATOM      4  C   LIG    1       -0.793  -3.270   4.479  0.00  0.00    -0.010 C 
ATOM      5  C   LIG    1       -0.044  -3.957   3.334  0.00  0.00    +0.060 C 
ATOM      6  C   LIG    1       -0.021  -3.461   5.786  0.00  0.00    +0.050 C 
ATOM      7  C   LIG    1       -0.783  -3.695   2.020  0.00  0.00    +0.170 C 
ATOM      8  C   LIG    1       -0.038  -4.379   0.872  0.00  0.00    +0.080 C 
ATOM      9  H   LIG    1        0.093  -1.873   1.757  0.00  0.00    +0.420 HD
ENDROOT
BRANCH   1  10
ATOM     10  C   LIG    1       -1.482  -2.007   0.468  0.00  0.00    +0.240 C 
BRANCH  10  11
ATOM     11  C   LIG    1       -1.430  -0.513   0.145  0.00  0.00    -0.020 C 
BRANCH  11  13
ATOM     12  C   LIG    1        0.089   1.438  -0.216  0.00  0.00    +0.040 C 
ATOM     13  C   LIG    1        0.027  -0.080  -0.033  0.00  0.00    +0.000 C 
ENDBRANCH  11  13
BRANCH  11  14
ATOM     14  C   LIG    1       -2.204  -0.242  -1.147  0.00  0.00    +0.040 C 
ATOM     15  C   LIG    1       -3.688  -0.543  -0.925  0.00  0.00    +0.020 C 
ENDBRANCH  11  14
ENDBRANCH  10  11
ENDBRANCH   1  10
TORSDOF 4
ENDMDL
MODEL      592
REMARK  Name = ZINC001201534764
REMARK                            x       y       z     vdW  Elec       q    Type
REMARK                         _______ _______ _______ _____ _____    ______ ____
ROOT
ATOM      1  N   LIG    1        1.751  -4.374   2.717  0.00  0.00    -0.380 N 
ATOM      2  H   LIG    1        0.876  -4.877   2.743  0.00  0.00    +0.420 HD
ENDROOT
BRANCH   1   3
ATOM      3  C   LIG    1        1.499  -2.942   2.920  0.00  0.00    +0.250 C 
BRANCH   3   4
ATOM      4  C   LIG    1        0.482  -2.451   1.887  0.00  0.00    -0.030 C 
ATOM      5  C   LIG    1       -0.864  -3.138   2.130  0.00  0.00    +0.040 C 
BRANCH   4   6
ATOM      6  C   LIG    1        0.313  -0.936   2.018  0.00  0.00    +0.040 C 
BRANCH   6   8
ATOM      7  C   LIG    1       -0.777   1.087   1.037  0.00  0.00    +0.020 C 
ATOM      8  C   LIG    1       -0.607  -0.428   0.906  0.00  0.00    +0.000 C 
ENDBRANCH   6   8
ENDBRANCH   4   6
ENDBRANCH   3   4
ENDBRANCH   1   3
BRANCH   1   9
ATOM      9  C   LIG    1        2.634  -4.872   3.780  0.00  0.00    +0.280 C 
BRANCH   9  10
ATOM     10  C   LIG    1        2.795  -6.387   3.642  0.00  0.00    -0.090 C 
ATOM     11  C   LIG    1        4.190  -6.922   3.313  0.00  0.00    +0.050 C 
ATOM     12  C   LIG    1        3.610  -7.112   4.715  0.00  0.00    +0.070 C 
ENDBRANCH   9  10
ENDBRANCH   1   9
BRANCH   1  13
ATOM     13  C   LIG    1        2.394  -4.578   1.412  0.00  0.00    +0.240 C 
BRANCH  13  14
ATOM     14  C   LIG    1        3.667  -3.732   1.333  0.00  0.00    +0.020 C 
ATOM     15  C   LIG    1        4.407  -4.044   0.031  0.00  0.00    +0.060 C 
ENDBRANCH  13  14
ENDBRANCH   1  13
TORSDOF 8
ENDMDL
MODEL      593
REMARK  Name = ZINC001201539035
REMARK                            x       y       z     vdW  Elec       q    Type
REMARK                         _______ _______ _______ _____ _____    ______ ____
ROOT
ATOM      1  N   LIG    1        1.564  -2.515   2.407  0.00  0.00    -0.390 N 
ATOM      2  H   LIG    1        2.550  -2.321   2.505  0.00  0.00    +0.420 HD
ENDROOT
BRANCH   1   3
ATOM      3  C   LIG    1        0.815  -1.776   3.432  0.00  0.00    +0.240 C 
ATOM      4  C   LIG    1       -0.677  -2.081   3.292  0.00  0.00    +0.080 C 
ENDBRANCH   1   3
BRANCH   1   5
ATOM      5  C   LIG    1        1.113  -2.096   1.073  0.00  0.00    +0.240 C 
BRANCH   5   6
ATOM      6  C   LIG    1        1.470  -0.624   0.853  0.00  0.00    +0.030 C 
BRANCH   6   8
ATOM      7  C   LIG    1        1.357   1.284  -0.756  0.00  0.00    +0.030 C 
ATOM      8  C   LIG    1        1.000  -0.188  -0.536  0.00  0.00    +0.020 C 
ENDBRANCH   6   8
ENDBRANCH   5   6
ENDBRANCH   1   5
BRANCH   1   9
ATOM      9  C   LIG    1        1.330  -3.955   2.573  0.00  0.00    +0.250 C 
BRANCH   9  10
ATOM     10  C   LIG    1        1.921  -4.418   3.906  0.00  0.00    -0.030 C 
ATOM     11  C   LIG    1        3.437  -4.213   3.891  0.00  0.00    +0.040 C 
BRANCH  10  12
ATOM     12  C   LIG    1        1.609  -5.901   4.115  0.00  0.00    +0.030 C 
BRANCH  12  13
ATOM     13  C   LIG    1        2.090  -6.333   5.502  0.00  0.00    +0.000 C 
ATOM     14  C   LIG    1        1.779  -7.817   5.710  0.00  0.00    +0.020 C 
ENDBRANCH  12  13
ENDBRANCH  10  12
ENDBRANCH   9  10
ENDBRANCH   1   9
TORSDOF 8
ENDMDL
MODEL      594
REMARK  Name = ZINC001201521811
REMARK                            x       y       z     vdW  Elec       q    Type
REMARK                         _______ _______ _______ _____ _____    ______ ____
ROOT
ATOM      1  N   LIG    1        1.641  -2.484  -2.353  0.00  0.00    -0.390 N 
ATOM      2  C   LIG    1        3.013  -1.972  -2.240  0.00  0.00    +0.310 C 
ATOM      3  H   LIG    1        1.224  -2.145  -3.207  0.00  0.00    +0.420 HD
ENDROOT
BRANCH   1   4
ATOM      4  C   LIG    1        1.666  -3.952  -2.370  0.00  0.00    +0.170 C 
ATOM      5  C   LIG    1        0.237  -4.486  -2.487  0.00  0.00    +0.040 C 
ATOM      6  C   LIG    1        0.263  -6.016  -2.505  0.00  0.00    +0.040 C 
ATOM      7  C   LIG    1        1.088  -6.497  -3.701  0.00  0.00    -0.020 C 
ATOM      8  C   LIG    1        2.517  -5.964  -3.583  0.00  0.00    +0.040 C 
ATOM      9  C   LIG    1        1.114  -8.027  -3.719  0.00  0.00    +0.030 C 
ATOM     10  C   LIG    1        2.490  -4.434  -3.565  0.00  0.00    +0.040 C 
ENDBRANCH   1   4
BRANCH   1  11
ATOM     11  C   LIG    1        0.849  -2.021  -1.205  0.00  0.00    +0.250 C 
BRANCH  11  12
ATOM     12  C   LIG    1        0.718  -0.497  -1.257  0.00  0.00    -0.030 C 
ATOM     13  C   LIG    1       -0.089  -0.097  -2.493  0.00  0.00    +0.040 C 
BRANCH  12  15
ATOM     14  C   LIG    1       -0.019   1.526   0.010  0.00  0.00    +0.030 C 
ATOM     15  C   LIG    1        0.002  -0.004   0.002  0.00  0.00    +0.020 C 
ENDBRANCH  12  15
ENDBRANCH  11  12
ENDBRANCH   1  11
TORSDOF 4
ENDMDL
MODEL      595
REMARK  Name = ZINC001201523745
REMARK                            x       y       z     vdW  Elec       q    Type
REMARK                         _______ _______ _______ _____ _____    ______ ____
ROOT
ATOM      1  N   LIG    1       -3.110  -2.270   0.323  0.00  0.00    -0.380 N 
ATOM      2  C   LIG    1       -3.686  -2.000  -0.974  0.00  0.00    +0.240 C 
ATOM      3  C   LIG    1       -5.122  -1.464  -0.847  0.00  0.00    +0.060 C 
ATOM      4  C   LIG    1       -5.938  -2.200   0.234  0.00  0.00    +0.010 C 
ATOM      5  C   LIG    1       -5.729  -3.692   0.224  0.00  0.00    +0.040 C 
ATOM      6  C   LIG    1       -4.568  -4.050   1.183  0.00  0.00    -0.030 C 
ATOM      7  C   LIG    1       -4.604  -5.551   1.476  0.00  0.00    +0.070 C 
ATOM      8  C   LIG    1       -3.276  -3.709   0.596  0.00  0.00    +0.260 C 
ATOM      9  H   LIG    1       -3.588  -1.731   1.029  0.00  0.00    +0.420 HD
ENDROOT
BRANCH   1  10
ATOM     10  C   LIG    1       -1.682  -1.927   0.316  0.00  0.00    +0.250 C 
BRANCH  10  11
ATOM     11  C   LIG    1       -1.524  -0.409   0.198  0.00  0.00    -0.010 C 
BRANCH  11  13
ATOM     12  C   LIG    1       -2.085   1.784   1.256  0.00  0.00    +0.040 C 
ATOM     13  C   LIG    1       -2.131   0.264   1.430  0.00  0.00    +0.000 C 
ENDBRANCH  11  13
BRANCH  11  14
ATOM     14  C   LIG    1       -0.037  -0.058   0.105  0.00  0.00    +0.040 C 
ATOM     15  C   LIG    1        0.535  -0.604  -1.204  0.00  0.00    +0.020 C 
ENDBRANCH  11  14
ENDBRANCH  10  11
ENDBRANCH   1  10
TORSDOF 4
ENDMDL
MODEL      596
REMARK  Name = ZINC001201531939
REMARK                            x       y       z     vdW  Elec       q    Type
REMARK                         _______ _______ _______ _____ _____    ______ ____
ROOT
ATOM      1  N   LIG    1       -3.103  -2.271   0.266  0.00  0.00    -0.380 N 
ATOM      2  C   LIG    1       -3.673  -1.975  -1.054  0.00  0.00    +0.240 C 
ATOM      3  C   LIG    1       -5.172  -2.283  -1.047  0.00  0.00    +0.060 C 
ATOM      4  C   LIG    1       -5.382  -3.764  -0.719  0.00  0.00    +0.030 C 
ATOM      5  C   LIG    1       -4.718  -4.078   0.625  0.00  0.00    -0.020 C 
ATOM      6  C   LIG    1       -4.855  -5.572   0.926  0.00  0.00    +0.070 C 
ATOM      7  C   LIG    1       -3.236  -3.704   0.554  0.00  0.00    +0.170 C 
ATOM      8  C   LIG    1       -2.559  -4.514  -0.554  0.00  0.00    +0.080 C 
ATOM      9  H   LIG    1       -3.594  -1.740   0.970  0.00  0.00    +0.420 HD
ENDROOT
BRANCH   1  10
ATOM     10  C   LIG    1       -1.681  -1.901   0.277  0.00  0.00    +0.250 C 
BRANCH  10  11
ATOM     11  C   LIG    1       -1.549  -0.383   0.135  0.00  0.00    -0.020 C 
BRANCH  11  13
ATOM     12  C   LIG    1       -2.183   1.817   1.135  0.00  0.00    +0.040 C 
ATOM     13  C   LIG    1       -2.205   0.300   1.337  0.00  0.00    +0.000 C 
ENDBRANCH  11  13
BRANCH  11  14
ATOM     14  C   LIG    1       -0.067  -0.004   0.079  0.00  0.00    +0.040 C 
ATOM     15  C   LIG    1        0.554  -0.565  -1.202  0.00  0.00    +0.020 C 
ENDBRANCH  11  14
ENDBRANCH  10  11
ENDBRANCH   1  10
TORSDOF 4
ENDMDL
MODEL      597
REMARK  Name = ZINC001201534144
REMARK                            x       y       z     vdW  Elec       q    Type
REMARK                         _______ _______ _______ _____ _____    ______ ____
ROOT
ATOM      1  N   LIG    1       -2.918  -4.349  -0.021  0.00  0.00    -0.370 N 
ATOM      2  C   LIG    1       -2.377  -5.144  -1.109  0.00  0.00    +0.150 C 
ATOM      3  C   LIG    1       -2.809  -6.604  -1.074  0.00  0.00    +0.060 C 
ATOM      4  C   LIG    1       -4.329  -6.707  -0.946  0.00  0.00    +0.030 C 
ATOM      5  C   LIG    1       -4.753  -5.995   0.339  0.00  0.00    +0.070 C 
ATOM      6  C   LIG    1       -2.683  -4.527  -2.474  0.00  0.00    +0.080 C 
ATOM      7  C   LIG    1       -4.321  -4.536   0.308  0.00  0.00    +0.150 C 
ATOM      8  C   LIG    1       -5.235  -3.726  -0.610  0.00  0.00    +0.080 C 
ATOM      9  H   LIG    1       -2.370  -4.564   0.822  0.00  0.00    +0.420 HD
ENDROOT
BRANCH   1  10
ATOM     10  C   LIG    1       -2.682  -2.918  -0.310  0.00  0.00    +0.250 C 
BRANCH  10  11
ATOM     11  C   LIG    1       -2.933  -2.094   0.954  0.00  0.00    -0.030 C 
ATOM     12  C   LIG    1       -1.894  -2.459   2.016  0.00  0.00    +0.040 C 
BRANCH  11  13
ATOM     13  C   LIG    1       -2.822  -0.605   0.622  0.00  0.00    +0.040 C 
BRANCH  13  15
ATOM     14  C   LIG    1       -3.084   1.711   1.522  0.00  0.00    +0.020 C 
ATOM     15  C   LIG    1       -3.195   0.222   1.854  0.00  0.00    +0.000 C 
ENDBRANCH  13  15
ENDBRANCH  11  13
ENDBRANCH  10  11
ENDBRANCH   1  10
TORSDOF 4
ENDMDL
MODEL      598
REMARK  Name = ZINC001201538331
REMARK                            x       y       z     vdW  Elec       q    Type
REMARK                         _______ _______ _______ _____ _____    ______ ____
ROOT
ATOM      1  N   LIG    1       -2.812  -4.058   0.253  0.00  0.00    -0.380 N 
ATOM      2  C   LIG    1       -2.165  -4.442   1.487  0.00  0.00    +0.230 C 
ATOM      3  C   LIG    1       -1.320  -5.714   1.302  0.00  0.00    +0.060 C 
ATOM      4  C   LIG    1       -2.020  -6.770   0.424  0.00  0.00    +0.010 C 
ATOM      5  C   LIG    1       -3.487  -6.923   0.731  0.00  0.00    +0.040 C 
ATOM      6  C   LIG    1       -4.299  -5.965  -0.174  0.00  0.00    -0.030 C 
ATOM      7  C   LIG    1       -5.771  -6.383  -0.153  0.00  0.00    +0.070 C 
ATOM      8  C   LIG    1       -4.187  -4.585   0.286  0.00  0.00    +0.260 C 
ATOM      9  H   LIG    1       -2.313  -4.451  -0.531  0.00  0.00    +0.420 HD
ENDROOT
BRANCH   1  10
ATOM     10  C   LIG    1       -2.841  -2.594   0.141  0.00  0.00    +0.250 C 
BRANCH  10  11
ATOM     11  C   LIG    1       -1.413  -2.063   0.004  0.00  0.00    -0.030 C 
ATOM     12  C   LIG    1       -0.809  -2.558  -1.311  0.00  0.00    +0.040 C 
BRANCH  11  13
ATOM     13  C   LIG    1       -1.433  -0.534   0.013  0.00  0.00    +0.040 C 
BRANCH  13  15
ATOM     14  C   LIG    1       -0.019   1.526   0.010  0.00  0.00    +0.020 C 
ATOM     15  C   LIG    1        0.002  -0.004   0.002  0.00  0.00    +0.000 C 
ENDBRANCH  13  15
ENDBRANCH  11  13
ENDBRANCH  10  11
ENDBRANCH   1  10
TORSDOF 4
ENDMDL
MODEL      599
REMARK  Name = ZINC001201534763
REMARK                            x       y       z     vdW  Elec       q    Type
REMARK                         _______ _______ _______ _____ _____    ______ ____
ROOT
ATOM      1  N   LIG    1        1.237  -4.046   2.321  0.00  0.00    -0.380 N 
ATOM      2  H   LIG    1        0.366  -4.430   1.987  0.00  0.00    +0.420 HD
ENDROOT
BRANCH   1   3
ATOM      3  C   LIG    1        1.153  -2.579   2.333  0.00  0.00    +0.250 C 
BRANCH   3   4
ATOM      4  C   LIG    1       -0.075  -2.145   3.136  0.00  0.00    -0.030 C 
ATOM      5  C   LIG    1       -1.344  -2.625   2.427  0.00  0.00    +0.040 C 
BRANCH   4   6
ATOM      6  C   LIG    1       -0.099  -0.619   3.247  0.00  0.00    +0.040 C 
BRANCH   6   8
ATOM      7  C   LIG    1       -1.279   1.334   4.264  0.00  0.00    +0.020 C 
ATOM      8  C   LIG    1       -1.255  -0.192   4.153  0.00  0.00    +0.000 C 
ENDBRANCH   6   8
ENDBRANCH   4   6
ENDBRANCH   3   4
ENDBRANCH   1   3
BRANCH   1   9
ATOM      9  C   LIG    1        1.496  -4.532   3.683  0.00  0.00    +0.280 C 
BRANCH   9  10
ATOM     10  C   LIG    1        1.440  -6.061   3.697  0.00  0.00    -0.090 C 
ATOM     11  C   LIG    1        2.737  -6.813   4.004  0.00  0.00    +0.050 C 
ATOM     12  C   LIG    1        1.618  -6.762   5.046  0.00  0.00    +0.070 C 
ENDBRANCH   9  10
ENDBRANCH   1   9
BRANCH   1  13
ATOM     13  C   LIG    1        2.330  -4.466   1.435  0.00  0.00    +0.250 C 
BRANCH  13  14
ATOM     14  C   LIG    1        1.992  -4.085  -0.008  0.00  0.00    +0.020 C 
ATOM     15  C   LIG    1        3.072  -4.630  -0.945  0.00  0.00    +0.060 C 
ENDBRANCH  13  14
ENDBRANCH   1  13
TORSDOF 8
ENDMDL
MODEL      600
REMARK  Name = ZINC001201534895
REMARK                            x       y       z     vdW  Elec       q    Type
REMARK                         _______ _______ _______ _____ _____    ______ ____
ROOT
ATOM      1  N   LIG    1        2.268  -2.217   0.540  0.00  0.00    -0.390 N 
ATOM      2  C   LIG    1        3.707  -1.937   0.729  0.00  0.00    +0.250 C 
ATOM      3  C   LIG    1        4.414  -2.710  -0.412  0.00  0.00    +0.080 C 
ATOM      4  C   LIG    1        3.554  -3.999  -0.496  0.00  0.00    +0.070 C 
ATOM      5  C   LIG    1        2.133  -3.488  -0.195  0.00  0.00    +0.160 C 
ATOM      6  H   LIG    1        1.843  -1.471   0.010  0.00  0.00    +0.420 HD
ENDROOT
BRANCH   5   7
ATOM      7  C   LIG    1        1.382  -4.511   0.659  0.00  0.00    -0.020 C 
ATOM      8  C   LIG    1        1.698  -5.922   0.161  0.00  0.00    +0.070 C 
ATOM      9  C   LIG    1       -0.123  -4.258   0.552  0.00  0.00    +0.050 C 
ENDBRANCH   5   7
BRANCH   1  10
ATOM     10  C   LIG    1        1.611  -2.331   1.849  0.00  0.00    +0.240 C 
BRANCH  10  11
ATOM     11  C   LIG    1        1.638  -0.973   2.553  0.00  0.00    -0.020 C 
BRANCH  11  13
ATOM     12  C   LIG    1        0.937   1.419   2.385  0.00  0.00    +0.040 C 
ATOM     13  C   LIG    1        0.794   0.029   1.762  0.00  0.00    +0.000 C 
ENDBRANCH  11  13
BRANCH  11  14
ATOM     14  C   LIG    1        1.066  -1.119   3.965  0.00  0.00    +0.040 C 
ATOM     15  C   LIG    1        1.991  -2.007   4.800  0.00  0.00    +0.020 C 
ENDBRANCH  11  14
ENDBRANCH  10  11
ENDBRANCH   1  10
TORSDOF 5
ENDMDL
MODEL      601
REMARK  Name = ZINC001201520470
REMARK                            x       y       z     vdW  Elec       q    Type
REMARK                         _______ _______ _______ _____ _____    ______ ____
ROOT
ATOM      1  N   LIG    1        0.732  -1.999  -0.935  0.00  0.00    -0.380 N 
ATOM      2  H   LIG    1        1.076  -2.077   0.010  0.00  0.00    +0.420 HD
ENDROOT
BRANCH   1   3
ATOM      3  C   LIG    1        1.776  -2.428  -1.875  0.00  0.00    +0.160 C 
ATOM      4  C   LIG    1        1.305  -2.181  -3.309  0.00  0.00    +0.090 C 
BRANCH   3   5
ATOM      5  C   LIG    1        3.056  -1.631  -1.613  0.00  0.00    +0.050 C 
ATOM      6  C   LIG    1        3.580  -1.952  -0.212  0.00  0.00    +0.030 C 
ENDBRANCH   3   5
ENDBRANCH   1   3
BRANCH   1   7
ATOM      7  C   LIG    1        0.369  -0.602  -1.211  0.00  0.00    +0.240 C 
BRANCH   7   9
ATOM      8  C   LIG    1       -0.864   1.388  -0.340  0.00  0.00    +0.060 C 
ATOM      9  C   LIG    1       -0.598  -0.104  -0.136  0.00  0.00    +0.020 C 
ENDBRANCH   7   9
ENDBRANCH   1   7
BRANCH   1  10
ATOM     10  C   LIG    1       -0.453  -2.853  -1.096  0.00  0.00    +0.240 C 
BRANCH  10  11
ATOM     11  C   LIG    1       -0.108  -4.286  -0.684  0.00  0.00    -0.020 C 
BRANCH  11  12
ATOM     12  C   LIG    1       -1.305  -5.198  -0.961  0.00  0.00    +0.040 C 
ATOM     13  C   LIG    1       -1.550  -5.275  -2.469  0.00  0.00    +0.020 C 
ENDBRANCH  11  12
BRANCH  11  14
ATOM     14  C   LIG    1        0.226  -4.321   0.808  0.00  0.00    +0.000 C 
ATOM     15  C   LIG    1        0.691  -5.727   1.194  0.00  0.00    +0.040 C 
ENDBRANCH  11  14
ENDBRANCH  10  11
ENDBRANCH   1  10
TORSDOF 8
ENDMDL
MODEL      602
REMARK  Name = ZINC001201539036
REMARK                            x       y       z     vdW  Elec       q    Type
REMARK                         _______ _______ _______ _____ _____    ______ ____
ROOT
ATOM      1  N   LIG    1        1.636  -2.597   2.362  0.00  0.00    -0.390 N 
ATOM      2  H   LIG    1        2.511  -2.150   2.593  0.00  0.00    +0.420 HD
ENDROOT
BRANCH   1   3
ATOM      3  C   LIG    1        0.632  -2.265   3.382  0.00  0.00    +0.240 C 
ATOM      4  C   LIG    1        1.173  -2.627   4.766  0.00  0.00    +0.080 C 
ENDBRANCH   1   3
BRANCH   1   5
ATOM      5  C   LIG    1        1.176  -2.124   1.050  0.00  0.00    +0.240 C 
BRANCH   5   6
ATOM      6  C   LIG    1        1.096  -0.596   1.058  0.00  0.00    +0.030 C 
BRANCH   6   8
ATOM      7  C   LIG    1        0.537   1.425  -0.301  0.00  0.00    +0.030 C 
ATOM      8  C   LIG    1        0.617  -0.103  -0.309  0.00  0.00    +0.020 C 
ENDBRANCH   6   8
ENDBRANCH   5   6
ENDBRANCH   1   5
BRANCH   1   9
ATOM      9  C   LIG    1        1.827  -4.053   2.318  0.00  0.00    +0.250 C 
BRANCH   9  10
ATOM     10  C   LIG    1        2.964  -4.389   1.350  0.00  0.00    -0.030 C 
ATOM     11  C   LIG    1        4.281  -3.837   1.899  0.00  0.00    +0.040 C 
BRANCH  10  12
ATOM     12  C   LIG    1        3.072  -5.907   1.198  0.00  0.00    +0.040 C 
BRANCH  12  13
ATOM     13  C   LIG    1        4.123  -6.240   0.138  0.00  0.00    +0.000 C 
ATOM     14  C   LIG    1        4.231  -7.759  -0.015  0.00  0.00    +0.020 C 
ENDBRANCH  12  13
ENDBRANCH  10  12
ENDBRANCH   9  10
ENDBRANCH   1   9
TORSDOF 8
ENDMDL
MODEL      603
REMARK  Name = ZINC001201520628
REMARK                            x       y       z     vdW  Elec       q    Type
REMARK                         _______ _______ _______ _____ _____    ______ ____
ROOT
ATOM      1  N   LIG    1        1.678  -3.887  -3.058  0.00  0.00    -0.390 N 
ATOM      2  C   LIG    1        0.284  -4.348  -2.997  0.00  0.00    +0.310 C 
ATOM      3  H   LIG    1        2.101  -3.973  -2.146  0.00  0.00    +0.420 HD
ENDROOT
BRANCH   1   4
ATOM      4  C   LIG    1        1.710  -2.481  -3.482  0.00  0.00    +0.250 C 
BRANCH   4   5
ATOM      5  C   LIG    1        1.043  -1.611  -2.415  0.00  0.00    +0.020 C 
BRANCH   5   6
ATOM      6  C   LIG    1        1.077  -0.146  -2.856  0.00  0.00    +0.020 C 
BRANCH   6   8
ATOM      7  C   LIG    1        0.443   2.188  -2.231  0.00  0.00    +0.020 C 
ATOM      8  C   LIG    1        0.409   0.723  -1.789  0.00  0.00    +0.010 C 
ENDBRANCH   6   8
ENDBRANCH   5   6
ENDBRANCH   4   5
ENDBRANCH   1   4
BRANCH   1   9
ATOM      9  C   LIG    1        2.423  -4.707  -4.023  0.00  0.00    +0.250 C 
BRANCH   9  10
ATOM     10  C   LIG    1        2.445  -6.161  -3.547  0.00  0.00    -0.020 C 
BRANCH  10  11
ATOM     11  C   LIG    1        3.253  -6.261  -2.252  0.00  0.00    +0.020 C 
ATOM     12  C   LIG    1        2.334  -6.002  -1.056  0.00  0.00    +0.010 C 
ENDBRANCH  10  11
BRANCH  10  13
ATOM     13  C   LIG    1        3.091  -7.039  -4.621  0.00  0.00    +0.020 C 
ATOM     14  C   LIG    1        3.001  -8.507  -4.201  0.00  0.00    +0.030 C 
ENDBRANCH  10  13
ENDBRANCH   9  10
ENDBRANCH   1   9
TORSDOF 8
ENDMDL
MODEL      604
REMARK  Name = ZINC001201523746
REMARK                            x       y       z     vdW  Elec       q    Type
REMARK                         _______ _______ _______ _____ _____    ______ ____
ROOT
ATOM      1  N   LIG    1       -3.122  -2.329   0.220  0.00  0.00    -0.380 N 
ATOM      2  C   LIG    1       -3.633  -2.043  -1.099  0.00  0.00    +0.240 C 
ATOM      3  C   LIG    1       -5.075  -1.534  -0.946  0.00  0.00    +0.050 C 
ATOM      4  C   LIG    1       -6.053  -2.608  -0.837  0.00  0.00    +0.030 C 
ATOM      5  C   LIG    1       -5.783  -3.482   0.414  0.00  0.00    +0.030 C 
ATOM      6  C   LIG    1       -4.601  -4.373   0.138  0.00  0.00    -0.020 C 
ATOM      7  C   LIG    1       -4.797  -5.692   0.888  0.00  0.00    +0.070 C 
ATOM      8  C   LIG    1       -3.256  -3.760   0.564  0.00  0.00    +0.250 C 
ATOM      9  H   LIG    1       -3.631  -1.779   0.895  0.00  0.00    +0.420 HD
ENDROOT
BRANCH   1  10
ATOM     10  C   LIG    1       -1.702  -1.955   0.274  0.00  0.00    +0.250 C 
BRANCH  10  11
ATOM     11  C   LIG    1       -1.565  -0.442   0.090  0.00  0.00    -0.020 C 
BRANCH  11  13
ATOM     12  C   LIG    1       -2.209   1.786   1.018  0.00  0.00    +0.040 C 
ATOM     13  C   LIG    1       -2.235   0.276   1.263  0.00  0.00    +0.000 C 
ENDBRANCH  11  13
BRANCH  11  14
ATOM     14  C   LIG    1       -0.083  -0.066   0.041  0.00  0.00    +0.040 C 
ATOM     15  C   LIG    1        0.553  -0.663  -1.216  0.00  0.00    +0.020 C 
ENDBRANCH  11  14
ENDBRANCH  10  11
ENDBRANCH   1  10
TORSDOF 4
ENDMDL
MODEL      605
REMARK  Name = ZINC001201531937
REMARK                            x       y       z     vdW  Elec       q    Type
REMARK                         _______ _______ _______ _____ _____    ______ ____
ROOT
ATOM      1  N   LIG    1       -3.103  -2.271   0.266  0.00  0.00    -0.380 N 
ATOM      2  C   LIG    1       -3.674  -1.975  -1.054  0.00  0.00    +0.240 C 
ATOM      3  C   LIG    1       -5.173  -2.283  -1.047  0.00  0.00    +0.050 C 
ATOM      4  C   LIG    1       -5.382  -3.764  -0.719  0.00  0.00    +0.040 C 
ATOM      5  C   LIG    1       -4.719  -4.078   0.625  0.00  0.00    +0.010 C 
ATOM      6  C   LIG    1       -5.399  -3.270   1.732  0.00  0.00    +0.040 C 
ATOM      7  C   LIG    1       -3.237  -3.704   0.554  0.00  0.00    +0.170 C 
ATOM      8  C   LIG    1       -2.559  -4.514  -0.553  0.00  0.00    +0.080 C 
ATOM      9  H   LIG    1       -3.594  -1.740   0.970  0.00  0.00    +0.420 HD
ENDROOT
BRANCH   1  10
ATOM     10  C   LIG    1       -1.682  -1.901   0.277  0.00  0.00    +0.250 C 
BRANCH  10  11
ATOM     11  C   LIG    1       -1.549  -0.383   0.136  0.00  0.00    -0.020 C 
BRANCH  11  13
ATOM     12  C   LIG    1       -2.182   1.817   1.135  0.00  0.00    +0.040 C 
ATOM     13  C   LIG    1       -2.205   0.301   1.337  0.00  0.00    +0.000 C 
ENDBRANCH  11  13
BRANCH  11  14
ATOM     14  C   LIG    1       -0.067  -0.004   0.079  0.00  0.00    +0.040 C 
ATOM     15  C   LIG    1        0.554  -0.565  -1.202  0.00  0.00    +0.020 C 
ENDBRANCH  11  14
ENDBRANCH  10  11
ENDBRANCH   1  10
TORSDOF 4
ENDMDL
MODEL      606
REMARK  Name = ZINC001201521812
REMARK                            x       y       z     vdW  Elec       q    Type
REMARK                         _______ _______ _______ _____ _____    ______ ____
ROOT
ATOM      1  N   LIG    1        1.307  -2.497  -2.507  0.00  0.00    -0.390 N 
ATOM      2  C   LIG    1        2.751  -2.299  -2.326  0.00  0.00    +0.310 C 
ATOM      3  H   LIG    1        1.001  -2.009  -3.335  0.00  0.00    +0.420 HD
ENDROOT
BRANCH   1   4
ATOM      4  C   LIG    1        1.024  -3.932  -2.651  0.00  0.00    +0.160 C 
ATOM      5  C   LIG    1       -0.480  -4.139  -2.839  0.00  0.00    +0.040 C 
ATOM      6  C   LIG    1       -0.774  -5.633  -2.989  0.00  0.00    +0.040 C 
ATOM      7  C   LIG    1       -0.028  -6.179  -4.208  0.00  0.00    -0.020 C 
ATOM      8  C   LIG    1        1.476  -5.973  -4.019  0.00  0.00    +0.040 C 
ATOM      9  C   LIG    1       -0.323  -7.673  -4.358  0.00  0.00    +0.030 C 
ATOM     10  C   LIG    1        1.770  -4.479  -3.869  0.00  0.00    +0.040 C 
ENDBRANCH   1   4
BRANCH   1  11
ATOM     11  C   LIG    1        0.590  -1.972  -1.337  0.00  0.00    +0.250 C 
BRANCH  11  12
ATOM     12  C   LIG    1        0.788  -0.457  -1.255  0.00  0.00    -0.030 C 
ATOM     13  C   LIG    1        0.161   0.070   0.037  0.00  0.00    +0.070 C 
BRANCH  12  15
ATOM     14  C   LIG    1        0.421   1.710  -2.443  0.00  0.00    +0.040 C 
ATOM     15  C   LIG    1        0.117   0.210  -2.458  0.00  0.00    +0.000 C 
ENDBRANCH  12  15
ENDBRANCH  11  12
ENDBRANCH   1  11
TORSDOF 4
ENDMDL
MODEL      607
REMARK  Name = ZINC001201520469
REMARK                            x       y       z     vdW  Elec       q    Type
REMARK                         _______ _______ _______ _____ _____    ______ ____
ROOT
ATOM      1  N   LIG    1        0.576  -2.616  -1.919  0.00  0.00    -0.390 N 
ATOM      2  H   LIG    1        0.925  -2.739  -0.980  0.00  0.00    +0.420 HD
ENDROOT
BRANCH   1   3
ATOM      3  C   LIG    1        1.372  -3.430  -2.847  0.00  0.00    +0.160 C 
ATOM      4  C   LIG    1        0.761  -3.350  -4.248  0.00  0.00    +0.090 C 
BRANCH   3   5
ATOM      5  C   LIG    1        1.374  -4.886  -2.375  0.00  0.00    +0.050 C 
ATOM      6  C   LIG    1        2.084  -4.982  -1.023  0.00  0.00    +0.030 C 
ENDBRANCH   3   5
ENDBRANCH   1   3
BRANCH   1   7
ATOM      7  C   LIG    1        0.679  -1.200  -2.298  0.00  0.00    +0.240 C 
BRANCH   7   9
ATOM      8  C   LIG    1        2.244   0.729  -2.566  0.00  0.00    +0.070 C 
ATOM      9  C   LIG    1        2.119  -0.722  -2.097  0.00  0.00    +0.020 C 
ENDBRANCH   7   9
ENDBRANCH   1   7
BRANCH   1  10
ATOM     10  C   LIG    1       -0.830  -3.038  -1.978  0.00  0.00    +0.240 C 
BRANCH  10  11
ATOM     11  C   LIG    1       -1.634  -2.282  -0.919  0.00  0.00    -0.010 C 
BRANCH  11  12
ATOM     12  C   LIG    1       -1.111  -2.645   0.473  0.00  0.00    +0.020 C 
ATOM     13  C   LIG    1        0.040  -1.709   0.845  0.00  0.00    +0.020 C 
ENDBRANCH  11  12
BRANCH  11  14
ATOM     14  C   LIG    1       -3.110  -2.671  -1.026  0.00  0.00    +0.020 C 
ATOM     15  C   LIG    1       -3.932  -1.824  -0.052  0.00  0.00    +0.030 C 
ENDBRANCH  11  14
ENDBRANCH  10  11
ENDBRANCH   1  10
TORSDOF 8
ENDMDL
MODEL      608
REMARK  Name = ZINC001201531229
REMARK                            x       y       z     vdW  Elec       q    Type
REMARK                         _______ _______ _______ _____ _____    ______ ____
ROOT
ATOM      1  N   LIG    1       -0.843  -2.250   1.768  0.00  0.00    -0.380 N 
ATOM      2  C   LIG    1       -1.622  -1.594   2.825  0.00  0.00    +0.240 C 
ATOM      3  C   LIG    1       -0.917  -1.775   4.171  0.00  0.00    +0.060 C 
ATOM      4  C   LIG    1       -0.793  -3.270   4.479  0.00  0.00    -0.020 C 
ATOM      5  C   LIG    1       -0.044  -3.957   3.334  0.00  0.00    +0.060 C 
ATOM      6  C   LIG    1       -0.021  -3.461   5.786  0.00  0.00    +0.050 C 
ATOM      7  C   LIG    1       -0.783  -3.695   2.020  0.00  0.00    +0.170 C 
ATOM      8  C   LIG    1       -2.203  -4.257   2.113  0.00  0.00    +0.070 C 
ATOM      9  H   LIG    1        0.093  -1.873   1.757  0.00  0.00    +0.420 HD
ENDROOT
BRANCH   1  10
ATOM     10  C   LIG    1       -1.482  -2.007   0.468  0.00  0.00    +0.250 C 
BRANCH  10  11
ATOM     11  C   LIG    1       -1.430  -0.513   0.145  0.00  0.00    -0.020 C 
BRANCH  11  13
ATOM     12  C   LIG    1        0.089   1.438  -0.216  0.00  0.00    +0.040 C 
ATOM     13  C   LIG    1        0.027  -0.080  -0.033  0.00  0.00    +0.000 C 
ENDBRANCH  11  13
BRANCH  11  14
ATOM     14  C   LIG    1       -2.204  -0.242  -1.147  0.00  0.00    +0.040 C 
ATOM     15  C   LIG    1       -3.688  -0.543  -0.925  0.00  0.00    +0.020 C 
ENDBRANCH  11  14
ENDBRANCH  10  11
ENDBRANCH   1  10
TORSDOF 4
ENDMDL
MODEL      609
REMARK  Name = ZINC001201538568
REMARK                            x       y       z     vdW  Elec       q    Type
REMARK                         _______ _______ _______ _____ _____    ______ ____
ROOT
ATOM      1  N   LIG    1        1.212  -3.911   2.303  0.00  0.00    -0.380 N 
ATOM      2  C   LIG    1        2.059  -4.366   1.228  0.00  0.00    +0.240 C 
ATOM      3  C   LIG    1        1.313  -5.484   0.480  0.00  0.00    +0.050 C 
ATOM      4  C   LIG    1        1.463  -6.791   1.107  0.00  0.00    +0.030 C 
ATOM      5  C   LIG    1        0.884  -6.788   2.544  0.00  0.00    -0.030 C 
ATOM      6  C   LIG    1        1.843  -6.068   3.453  0.00  0.00    +0.060 C 
ATOM      7  C   LIG    1        0.702  -8.229   3.025  0.00  0.00    +0.040 C 
ATOM      8  C   LIG    1        1.551  -4.563   3.586  0.00  0.00    +0.250 C 
ATOM      9  H   LIG    1        0.251  -4.117   2.074  0.00  0.00    +0.420 HD
ENDROOT
BRANCH   1  10
ATOM     10  C   LIG    1        1.366  -2.457   2.450  0.00  0.00    +0.250 C 
BRANCH  10  11
ATOM     11  C   LIG    1        0.334  -1.933   3.451  0.00  0.00    -0.030 C 
ATOM     12  C   LIG    1       -1.073  -2.129   2.882  0.00  0.00    +0.040 C 
BRANCH  11  13
ATOM     13  C   LIG    1        0.579  -0.445   3.704  0.00  0.00    +0.030 C 
BRANCH  13  15
ATOM     14  C   LIG    1       -0.126   1.539   5.050  0.00  0.00    +0.020 C 
ATOM     15  C   LIG    1       -0.371   0.050   4.796  0.00  0.00    +0.000 C 
ENDBRANCH  13  15
ENDBRANCH  11  13
ENDBRANCH  10  11
ENDBRANCH   1  10
TORSDOF 4
ENDMDL
MODEL      610
REMARK  Name = ZINC001201535327
REMARK                            x       y       z     vdW  Elec       q    Type
REMARK                         _______ _______ _______ _____ _____    ______ ____
ROOT
ATOM      1  N   LIG    1       -0.696  -2.325   1.696  0.00  0.00    -0.380 N 
ATOM      2  C   LIG    1       -1.575  -1.687   2.683  0.00  0.00    +0.240 C 
ATOM      3  C   LIG    1       -0.927  -1.756   4.068  0.00  0.00    +0.060 C 
ATOM      4  C   LIG    1       -0.708  -3.223   4.450  0.00  0.00    +0.030 C 
ATOM      5  C   LIG    1        0.148  -3.898   3.375  0.00  0.00    +0.060 C 
ATOM      6  C   LIG    1       -0.541  -3.749   2.016  0.00  0.00    +0.170 C 
ATOM      7  H   LIG    1        0.208  -1.877   1.712  0.00  0.00    +0.420 HD
ENDROOT
BRANCH   6   8
ATOM      8  C   LIG    1       -1.918  -4.415   2.068  0.00  0.00    +0.020 C 
ATOM      9  C   LIG    1       -1.748  -5.924   2.252  0.00  0.00    +0.060 C 
ENDBRANCH   6   8
BRANCH   1  10
ATOM     10  C   LIG    1       -1.285  -2.188   0.357  0.00  0.00    +0.250 C 
BRANCH  10  11
ATOM     11  C   LIG    1       -1.298  -0.712  -0.045  0.00  0.00    -0.020 C 
BRANCH  11  13
ATOM     12  C   LIG    1        0.130   1.299  -0.447  0.00  0.00    +0.040 C 
ATOM     13  C   LIG    1        0.140  -0.208  -0.182  0.00  0.00    +0.000 C 
ENDBRANCH  11  13
BRANCH  11  14
ATOM     14  C   LIG    1       -2.023  -0.554  -1.383  0.00  0.00    +0.040 C 
ATOM     15  C   LIG    1       -3.497  -0.924  -1.211  0.00  0.00    +0.020 C 
ENDBRANCH  11  14
ENDBRANCH  10  11
ENDBRANCH   1  10
TORSDOF 5
ENDMDL
MODEL      611
REMARK  Name = ZINC001201538571
REMARK                            x       y       z     vdW  Elec       q    Type
REMARK                         _______ _______ _______ _____ _____    ______ ____
ROOT
ATOM      1  N   LIG    1        1.727  -4.008   2.327  0.00  0.00    -0.380 N 
ATOM      2  C   LIG    1        2.482  -4.377   1.152  0.00  0.00    +0.230 C 
ATOM      3  C   LIG    1        1.932  -5.666   0.517  0.00  0.00    +0.060 C 
ATOM      4  C   LIG    1        1.548  -6.728   1.566  0.00  0.00    +0.010 C 
ATOM      5  C   LIG    1        2.550  -6.852   2.683  0.00  0.00    -0.020 C 
ATOM      6  C   LIG    1        2.149  -5.900   3.836  0.00  0.00    +0.060 C 
ATOM      7  C   LIG    1        2.571  -8.294   3.193  0.00  0.00    +0.040 C 
ATOM      8  C   LIG    1        2.456  -4.512   3.504  0.00  0.00    +0.260 C 
ATOM      9  H   LIG    1        0.809  -4.424   2.289  0.00  0.00    +0.420 HD
ENDROOT
BRANCH   1  10
ATOM     10  C   LIG    1        1.608  -2.546   2.404  0.00  0.00    +0.250 C 
BRANCH  10  11
ATOM     11  C   LIG    1        0.763  -2.041   1.233  0.00  0.00    -0.030 C 
ATOM     12  C   LIG    1       -0.666  -2.571   1.370  0.00  0.00    +0.040 C 
BRANCH  11  13
ATOM     13  C   LIG    1        0.742  -0.511   1.242  0.00  0.00    +0.040 C 
BRANCH  13  15
ATOM     14  C   LIG    1       -0.019   1.526   0.010  0.00  0.00    +0.020 C 
ATOM     15  C   LIG    1        0.002  -0.004   0.002  0.00  0.00    +0.000 C 
ENDBRANCH  13  15
ENDBRANCH  11  13
ENDBRANCH  10  11
ENDBRANCH   1  10
TORSDOF 4
ENDMDL
MODEL      612
REMARK  Name = ZINC001201538332
REMARK                            x       y       z     vdW  Elec       q    Type
REMARK                         _______ _______ _______ _____ _____    ______ ____
ROOT
ATOM      1  N   LIG    1       -2.819  -4.062   0.133  0.00  0.00    -0.380 N 
ATOM      2  C   LIG    1       -2.198  -4.529   1.349  0.00  0.00    +0.240 C 
ATOM      3  C   LIG    1       -1.363  -5.774   1.005  0.00  0.00    +0.050 C 
ATOM      4  C   LIG    1       -2.150  -7.001   0.975  0.00  0.00    +0.030 C 
ATOM      5  C   LIG    1       -3.256  -6.926  -0.107  0.00  0.00    +0.030 C 
ATOM      6  C   LIG    1       -4.366  -6.041   0.394  0.00  0.00    -0.020 C 
ATOM      7  C   LIG    1       -5.693  -6.555  -0.168  0.00  0.00    +0.070 C 
ATOM      8  C   LIG    1       -4.203  -4.564  -0.007  0.00  0.00    +0.250 C 
ATOM      9  H   LIG    1       -2.274  -4.378  -0.656  0.00  0.00    +0.420 HD
ENDROOT
BRANCH   1  10
ATOM     10  C   LIG    1       -2.841  -2.594   0.141  0.00  0.00    +0.250 C 
BRANCH  10  11
ATOM     11  C   LIG    1       -1.407  -2.062   0.109  0.00  0.00    -0.020 C 
ATOM     12  C   LIG    1       -0.754  -2.438  -1.223  0.00  0.00    +0.040 C 
BRANCH  11  13
ATOM     13  C   LIG    1       -1.425  -0.539   0.256  0.00  0.00    +0.040 C 
BRANCH  13  15
ATOM     14  C   LIG    1       -0.006   1.504   0.496  0.00  0.00    +0.020 C 
ATOM     15  C   LIG    1        0.011  -0.019   0.349  0.00  0.00    +0.000 C 
ENDBRANCH  13  15
ENDBRANCH  11  13
ENDBRANCH  10  11
ENDBRANCH   1  10
TORSDOF 4
ENDMDL
MODEL      613
REMARK  Name = ZINC001201534487
REMARK                            x       y       z     vdW  Elec       q    Type
REMARK                         _______ _______ _______ _____ _____    ______ ____
ROOT
ATOM      1  N   LIG    1        1.727  -4.008   2.327  0.00  0.00    -0.390 N 
ATOM      2  C   LIG    1        2.478  -4.375   1.119  0.00  0.00    +0.310 C 
ATOM      3  H   LIG    1        0.807  -4.419   2.289  0.00  0.00    +0.420 HD
ENDROOT
BRANCH   1   4
ATOM      4  C   LIG    1        2.437  -4.505   3.514  0.00  0.00    +0.170 C 
ATOM      5  C   LIG    1        1.655  -4.122   4.772  0.00  0.00    +0.040 C 
ATOM      6  C   LIG    1        2.393  -4.639   6.009  0.00  0.00    +0.030 C 
ATOM      7  C   LIG    1        2.517  -6.162   5.929  0.00  0.00    +0.020 C 
ATOM      8  C   LIG    1        3.299  -6.545   4.670  0.00  0.00    +0.030 C 
ATOM      9  C   LIG    1        2.561  -6.027   3.434  0.00  0.00    +0.040 C 
ENDBRANCH   1   4
BRANCH   1  10
ATOM     10  C   LIG    1        1.608  -2.546   2.404  0.00  0.00    +0.250 C 
BRANCH  10  11
ATOM     11  C   LIG    1        0.763  -2.041   1.233  0.00  0.00    -0.030 C 
ATOM     12  C   LIG    1       -0.666  -2.571   1.370  0.00  0.00    +0.040 C 
BRANCH  11  13
ATOM     13  C   LIG    1        0.742  -0.511   1.242  0.00  0.00    +0.030 C 
BRANCH  13  15
ATOM     14  C   LIG    1       -0.019   1.526   0.010  0.00  0.00    +0.020 C 
ATOM     15  C   LIG    1        0.002  -0.004   0.002  0.00  0.00    +0.000 C 
ENDBRANCH  13  15
ENDBRANCH  11  13
ENDBRANCH  10  11
ENDBRANCH   1  10
TORSDOF 5
ENDMDL
MODEL      614
REMARK  Name = ZINC001201523218
REMARK                            x       y       z     vdW  Elec       q    Type
REMARK                         _______ _______ _______ _____ _____    ______ ____
ROOT
ATOM      1  N   LIG    1        1.315  -2.193  -2.898  0.00  0.00    -0.380 N 
ATOM      2  C   LIG    1        2.722  -1.904  -2.743  0.00  0.00    +0.240 C 
ATOM      3  C   LIG    1        3.321  -1.332  -4.040  0.00  0.00    +0.060 C 
ATOM      4  C   LIG    1        2.804  -2.051  -5.301  0.00  0.00    +0.010 C 
ATOM      5  C   LIG    1        2.731  -3.548  -5.145  0.00  0.00    -0.020 C 
ATOM      6  C   LIG    1        1.326  -3.938  -4.626  0.00  0.00    +0.060 C 
ATOM      7  C   LIG    1        2.981  -4.215  -6.499  0.00  0.00    +0.040 C 
ATOM      8  C   LIG    1        1.183  -3.627  -3.208  0.00  0.00    +0.260 C 
ATOM      9  H   LIG    1        0.934  -1.643  -3.655  0.00  0.00    +0.420 HD
ENDROOT
BRANCH   1  10
ATOM     10  C   LIG    1        0.602  -1.885  -1.651  0.00  0.00    +0.250 C 
BRANCH  10  11
ATOM     11  C   LIG    1        0.601  -0.371  -1.425  0.00  0.00    -0.010 C 
BRANCH  11  13
ATOM     12  C   LIG    1       -0.069   1.831  -2.396  0.00  0.00    +0.040 C 
ATOM     13  C   LIG    1       -0.173   0.313  -2.553  0.00  0.00    +0.000 C 
ENDBRANCH  11  13
BRANCH  11  14
ATOM     14  C   LIG    1       -0.067  -0.057  -0.085  0.00  0.00    +0.040 C 
ATOM     15  C   LIG    1        0.790  -0.613   1.055  0.00  0.00    +0.020 C 
ENDBRANCH  11  14
ENDBRANCH  10  11
ENDBRANCH   1  10
TORSDOF 4
ENDMDL
MODEL      615
REMARK  Name = ZINC001201558353
REMARK                            x       y       z     vdW  Elec       q    Type
REMARK                         _______ _______ _______ _____ _____    ______ ____
ROOT
ATOM      1  C   LIG    1       -3.214  -4.115   0.274  0.00  0.00    +0.250 C 
ENDROOT
BRANCH   1   2
ATOM      2  N   LIG    1       -4.581  -4.607   0.057  0.00  0.00    -0.390 N 
ATOM      3  C   LIG    1       -5.041  -4.205  -1.279  0.00  0.00    +0.310 C 
ATOM      4  H   LIG    1       -5.194  -4.215   0.756  0.00  0.00    +0.420 HD
BRANCH   2   5
ATOM      5  C   LIG    1       -4.596  -6.073   0.159  0.00  0.00    +0.160 C 
ATOM      6  C   LIG    1       -3.555  -6.661  -0.796  0.00  0.00    +0.090 C 
BRANCH   5   7
ATOM      7  C   LIG    1       -4.264  -6.488   1.593  0.00  0.00    +0.050 C 
ATOM      8  C   LIG    1       -5.372  -6.007   2.533  0.00  0.00    +0.030 C 
ENDBRANCH   5   7
ENDBRANCH   2   5
ENDBRANCH   1   2
BRANCH   1   9
ATOM      9  C   LIG    1       -3.220  -2.585   0.292  0.00  0.00    -0.010 C 
BRANCH   9  10
ATOM     10  C   LIG    1       -4.023  -2.092   1.497  0.00  0.00    +0.000 C 
ATOM     11  C   LIG    1       -4.142  -0.568   1.442  0.00  0.00    +0.040 C 
ENDBRANCH   9  10
BRANCH   9  12
ATOM     12  C   LIG    1       -1.782  -2.071   0.392  0.00  0.00    +0.040 C 
BRANCH  12  13
ATOM     13  C   LIG    1       -1.015  -2.450  -0.876  0.00  0.00    +0.000 C 
BRANCH  13  15
ATOM     14  C   LIG    1        1.148  -2.205  -2.102  0.00  0.00    +0.000 C 
ATOM     15  C   LIG    1        0.381  -1.826  -0.833  0.00  0.00    +0.000 C 
ENDBRANCH  13  15
ENDBRANCH  12  13
ENDBRANCH   9  12
ENDBRANCH   1   9
TORSDOF 8
ENDMDL
MODEL      616
REMARK  Name = ZINC001201552913
REMARK                            x       y       z     vdW  Elec       q    Type
REMARK                         _______ _______ _______ _____ _____    ______ ____
ROOT
ATOM      1  N   LIG    1       -2.566  -4.177  -0.300  0.00  0.00    -0.380 N 
ATOM      2  C   LIG    1       -2.120  -4.923   0.882  0.00  0.00    +0.250 C 
ATOM      3  C   LIG    1       -1.978  -6.406   0.531  0.00  0.00    +0.060 C 
ATOM      4  C   LIG    1       -3.333  -6.946   0.066  0.00  0.00    +0.030 C 
ATOM      5  C   LIG    1       -3.824  -6.113  -1.122  0.00  0.00    +0.060 C 
ATOM      6  C   LIG    1       -3.897  -4.642  -0.708  0.00  0.00    +0.160 C 
ATOM      7  H   LIG    1       -1.914  -4.325  -1.056  0.00  0.00    +0.420 HD
ENDROOT
BRANCH   6   8
ATOM      8  C   LIG    1       -4.872  -4.490   0.462  0.00  0.00    +0.020 C 
ATOM      9  C   LIG    1       -6.278  -4.885   0.009  0.00  0.00    +0.060 C 
ENDBRANCH   6   8
BRANCH   1  10
ATOM     10  C   LIG    1       -2.626  -2.744   0.020  0.00  0.00    +0.250 C 
BRANCH  10  11
ATOM     11  C   LIG    1       -2.949  -1.951  -1.248  0.00  0.00    -0.030 C 
ATOM     12  C   LIG    1       -1.795  -2.090  -2.244  0.00  0.00    +0.040 C 
BRANCH  11  13
ATOM     13  C   LIG    1       -3.140  -0.476  -0.892  0.00  0.00    +0.040 C 
BRANCH  13  15
ATOM     14  C   LIG    1       -3.776   1.771  -1.779  0.00  0.00    +0.020 C 
ATOM     15  C   LIG    1       -3.585   0.296  -2.136  0.00  0.00    +0.000 C 
ENDBRANCH  13  15
ENDBRANCH  11  13
ENDBRANCH  10  11
ENDBRANCH   1  10
TORSDOF 5
ENDMDL
MODEL      617
REMARK  Name = ZINC001201549844
REMARK                            x       y       z     vdW  Elec       q    Type
REMARK                         _______ _______ _______ _____ _____    ______ ____
ROOT
ATOM      1  N   LIG    1        1.254  -3.987  -2.641  0.00  0.00    -0.380 N 
ATOM      2  C   LIG    1       -0.171  -4.382  -2.657  0.00  0.00    +0.250 C 
ATOM      3  C   LIG    1       -0.405  -5.824  -3.143  0.00  0.00    +0.060 C 
ATOM      4  C   LIG    1        0.580  -6.814  -2.581  0.00  0.00    +0.020 C 
ATOM      5  C   LIG    1        1.780  -6.933  -3.554  0.00  0.00    +0.030 C 
ATOM      6  C   LIG    1        2.655  -5.772  -3.449  0.00  0.00    +0.050 C 
ATOM      7  C   LIG    1        1.953  -4.453  -3.813  0.00  0.00    +0.160 C 
ATOM      8  C   LIG    1        2.992  -3.415  -4.243  0.00  0.00    +0.090 C 
ATOM      9  H   LIG    1        1.693  -4.376  -1.820  0.00  0.00    +0.420 HD
ENDROOT
BRANCH   1  10
ATOM     10  C   LIG    1        1.343  -2.522  -2.581  0.00  0.00    +0.250 C 
BRANCH  10  11
ATOM     11  C   LIG    1        0.739  -2.027  -1.265  0.00  0.00    -0.030 C 
ATOM     12  C   LIG    1        1.584  -2.532  -0.094  0.00  0.00    +0.040 C 
BRANCH  11  13
ATOM     13  C   LIG    1        0.718  -0.497  -1.257  0.00  0.00    +0.030 C 
BRANCH  13  15
ATOM     14  C   LIG    1       -0.019   1.526   0.010  0.00  0.00    +0.020 C 
ATOM     15  C   LIG    1        0.002  -0.004   0.002  0.00  0.00    +0.000 C 
ENDBRANCH  13  15
ENDBRANCH  11  13
ENDBRANCH  10  11
ENDBRANCH   1  10
TORSDOF 4
ENDMDL
MODEL      618
REMARK  Name = ZINC001201552914
REMARK                            x       y       z     vdW  Elec       q    Type
REMARK                         _______ _______ _______ _____ _____    ______ ____
ROOT
ATOM      1  N   LIG    1       -3.381  -3.767   0.832  0.00  0.00    -0.380 N 
ATOM      2  C   LIG    1       -2.900  -3.895   2.213  0.00  0.00    +0.250 C 
ATOM      3  C   LIG    1       -3.092  -5.335   2.692  0.00  0.00    +0.050 C 
ATOM      4  C   LIG    1       -4.580  -5.693   2.633  0.00  0.00    +0.030 C 
ATOM      5  C   LIG    1       -5.088  -5.485   1.204  0.00  0.00    +0.060 C 
ATOM      6  C   LIG    1       -4.823  -4.038   0.781  0.00  0.00    +0.160 C 
ATOM      7  H   LIG    1       -2.895  -4.427   0.245  0.00  0.00    +0.420 HD
ENDROOT
BRANCH   6   8
ATOM      8  C   LIG    1       -5.329  -3.824  -0.647  0.00  0.00    +0.030 C 
ATOM      9  C   LIG    1       -6.836  -4.084  -0.698  0.00  0.00    +0.060 C 
ENDBRANCH   6   8
BRANCH   1  10
ATOM     10  C   LIG    1       -3.124  -2.403   0.350  0.00  0.00    +0.250 C 
BRANCH  10  11
ATOM     11  C   LIG    1       -1.681  -2.302  -0.148  0.00  0.00    -0.020 C 
ATOM     12  C   LIG    1       -0.721  -2.485   1.030  0.00  0.00    +0.040 C 
BRANCH  11  13
ATOM     13  C   LIG    1       -1.455  -0.928  -0.781  0.00  0.00    +0.030 C 
BRANCH  13  15
ATOM     14  C   LIG    1        0.173   0.504  -2.023  0.00  0.00    +0.020 C 
ATOM     15  C   LIG    1       -0.052  -0.871  -1.390  0.00  0.00    +0.010 C 
ENDBRANCH  13  15
ENDBRANCH  11  13
ENDBRANCH  10  11
ENDBRANCH   1  10
TORSDOF 5
ENDMDL
MODEL      619
REMARK  Name = ZINC001201549843
REMARK                            x       y       z     vdW  Elec       q    Type
REMARK                         _______ _______ _______ _____ _____    ______ ____
ROOT
ATOM      1  N   LIG    1        1.362  -3.991  -2.587  0.00  0.00    -0.380 N 
ATOM      2  C   LIG    1        0.006  -4.477  -2.667  0.00  0.00    +0.240 C 
ATOM      3  C   LIG    1       -0.094  -5.741  -1.797  0.00  0.00    +0.050 C 
ATOM      4  C   LIG    1        0.344  -6.948  -2.487  0.00  0.00    +0.030 C 
ATOM      5  C   LIG    1        1.832  -6.841  -2.903  0.00  0.00    +0.020 C 
ATOM      6  C   LIG    1        1.940  -5.931  -4.097  0.00  0.00    +0.060 C 
ATOM      7  C   LIG    1        2.182  -4.457  -3.725  0.00  0.00    +0.160 C 
ATOM      8  C   LIG    1        1.867  -3.587  -4.944  0.00  0.00    +0.070 C 
ATOM      9  H   LIG    1        1.778  -4.317  -1.727  0.00  0.00    +0.420 HD
ENDROOT
BRANCH   1  10
ATOM     10  C   LIG    1        1.343  -2.522  -2.581  0.00  0.00    +0.240 C 
BRANCH  10  11
ATOM     11  C   LIG    1        0.653  -2.026  -1.309  0.00  0.00    -0.030 C 
ATOM     12  C   LIG    1        1.493  -2.412  -0.089  0.00  0.00    +0.040 C 
BRANCH  11  13
ATOM     13  C   LIG    1        0.509  -0.504  -1.367  0.00  0.00    +0.040 C 
BRANCH  13  15
ATOM     14  C   LIG    1       -0.434   1.502  -0.213  0.00  0.00    +0.020 C 
ATOM     15  C   LIG    1       -0.290  -0.020  -0.155  0.00  0.00    +0.000 C 
ENDBRANCH  13  15
ENDBRANCH  11  13
ENDBRANCH  10  11
ENDBRANCH   1  10
TORSDOF 4
ENDMDL
MODEL      620
REMARK  Name = ZINC001201552608
REMARK                            x       y       z     vdW  Elec       q    Type
REMARK                         _______ _______ _______ _____ _____    ______ ____
ROOT
ATOM      1  N   LIG    1        1.254  -3.987  -2.641  0.00  0.00    -0.380 N 
ATOM      2  C   LIG    1       -0.158  -4.388  -2.682  0.00  0.00    +0.250 C 
ATOM      3  C   LIG    1       -0.258  -5.915  -2.662  0.00  0.00    +0.050 C 
ATOM      4  C   LIG    1        0.472  -6.485  -3.882  0.00  0.00    +0.040 C 
ATOM      5  C   LIG    1        1.924  -5.999  -3.868  0.00  0.00    -0.020 C 
ATOM      6  C   LIG    1        1.942  -4.469  -3.844  0.00  0.00    +0.250 C 
ATOM      7  H   LIG    1        1.691  -4.383  -1.822  0.00  0.00    +0.420 HD
ENDROOT
BRANCH   5   8
ATOM      8  C   LIG    1        2.642  -6.500  -5.123  0.00  0.00    +0.020 C 
ATOM      9  C   LIG    1        2.726  -8.027  -5.087  0.00  0.00    +0.030 C 
ENDBRANCH   5   8
BRANCH   1  10
ATOM     10  C   LIG    1        1.343  -2.522  -2.581  0.00  0.00    +0.250 C 
BRANCH  10  11
ATOM     11  C   LIG    1        0.739  -2.027  -1.265  0.00  0.00    -0.030 C 
ATOM     12  C   LIG    1        1.584  -2.532  -0.094  0.00  0.00    +0.040 C 
BRANCH  11  13
ATOM     13  C   LIG    1        0.718  -0.497  -1.257  0.00  0.00    +0.040 C 
BRANCH  13  15
ATOM     14  C   LIG    1       -0.019   1.526   0.010  0.00  0.00    +0.020 C 
ATOM     15  C   LIG    1        0.002  -0.004   0.002  0.00  0.00    +0.000 C 
ENDBRANCH  13  15
ENDBRANCH  11  13
ENDBRANCH  10  11
ENDBRANCH   1  10
TORSDOF 5
ENDMDL
MODEL      621
REMARK  Name = ZINC001201564239
REMARK                            x       y       z     vdW  Elec       q    Type
REMARK                         _______ _______ _______ _____ _____    ______ ____
ROOT
ATOM      1  C   LIG    1        1.547  -3.936  -2.566  0.00  0.00    +0.250 C 
ENDROOT
BRANCH   1   2
ATOM      2  N   LIG    1        2.324  -4.388  -3.728  0.00  0.00    -0.390 N 
ATOM      3  C   LIG    1        3.749  -4.031  -3.559  0.00  0.00    +0.250 C 
ATOM      4  C   LIG    1        4.577  -5.171  -4.179  0.00  0.00    +0.060 C 
ATOM      5  C   LIG    1        3.537  -6.201  -4.677  0.00  0.00    -0.010 C 
ATOM      6  C   LIG    1        4.017  -7.629  -4.408  0.00  0.00    +0.070 C 
ATOM      7  C   LIG    1        2.285  -5.870  -3.825  0.00  0.00    +0.260 C 
ATOM      8  H   LIG    1        1.959  -3.974  -4.573  0.00  0.00    +0.420 HD
ENDBRANCH   1   2
BRANCH   1   9
ATOM      9  C   LIG    1        1.514  -2.407  -2.538  0.00  0.00    -0.020 C 
BRANCH   9  10
ATOM     10  C   LIG    1        0.751  -1.891  -3.760  0.00  0.00    +0.000 C 
ATOM     11  C   LIG    1        0.838  -0.364  -3.808  0.00  0.00    +0.040 C 
ENDBRANCH   9  10
BRANCH   9  12
ATOM     12  C   LIG    1        0.812  -1.935  -1.263  0.00  0.00    +0.040 C 
BRANCH  12  13
ATOM     13  C   LIG    1        1.650  -2.330  -0.044  0.00  0.00    +0.000 C 
BRANCH  13  15
ATOM     14  C   LIG    1        1.855  -2.140   2.438  0.00  0.00    +0.000 C 
ATOM     15  C   LIG    1        1.017  -1.745   1.220  0.00  0.00    +0.000 C 
ENDBRANCH  13  15
ENDBRANCH  12  13
ENDBRANCH   9  12
ENDBRANCH   1   9
TORSDOF 6
ENDMDL
MODEL      622
REMARK  Name = ZINC001201551921
REMARK                            x       y       z     vdW  Elec       q    Type
REMARK                         _______ _______ _______ _____ _____    ______ ____
ROOT
ATOM      1  N   LIG    1        1.363  -4.621   2.347  0.00  0.00    -0.380 N 
ATOM      2  H   LIG    1        0.423  -4.974   2.450  0.00  0.00    +0.420 HD
ENDROOT
BRANCH   1   3
ATOM      3  C   LIG    1        2.000  -5.258   1.187  0.00  0.00    +0.240 C 
ATOM      4  C   LIG    1        1.974  -6.778   1.361  0.00  0.00    +0.080 C 
ENDBRANCH   1   3
BRANCH   1   5
ATOM      5  C   LIG    1        1.321  -3.167   2.146  0.00  0.00    +0.250 C 
BRANCH   5   6
ATOM      6  C   LIG    1        0.371  -2.839   0.992  0.00  0.00    -0.030 C 
ATOM      7  C   LIG    1       -1.056  -3.235   1.378  0.00  0.00    +0.040 C 
BRANCH   6   8
ATOM      8  C   LIG    1        0.422  -1.338   0.701  0.00  0.00    +0.030 C 
BRANCH   8  10
ATOM      9  C   LIG    1       -0.380   0.473  -0.823  0.00  0.00    +0.020 C 
ATOM     10  C   LIG    1       -0.431  -1.028  -0.531  0.00  0.00    +0.000 C 
ENDBRANCH   8  10
ENDBRANCH   6   8
ENDBRANCH   5   6
ENDBRANCH   1   5
BRANCH   1  11
ATOM     11  C   LIG    1        2.135  -4.926   3.559  0.00  0.00    +0.160 C 
BRANCH  11  12
ATOM     12  C   LIG    1        1.234  -4.786   4.787  0.00  0.00    +0.050 C 
ATOM     13  C   LIG    1        0.128  -5.841   4.731  0.00  0.00    +0.040 C 
ENDBRANCH  11  12
BRANCH  11  14
ATOM     14  C   LIG    1        3.309  -3.951   3.673  0.00  0.00    +0.050 C 
ATOM     15  C   LIG    1        4.295  -4.204   2.531  0.00  0.00    +0.030 C 
ENDBRANCH  11  14
ENDBRANCH   1  11
TORSDOF 8
ENDMDL
MODEL      623
REMARK  Name = ZINC001201552611
REMARK                            x       y       z     vdW  Elec       q    Type
REMARK                         _______ _______ _______ _____ _____    ______ ____
ROOT
ATOM      1  N   LIG    1        1.254  -3.987  -2.641  0.00  0.00    -0.380 N 
ATOM      2  C   LIG    1       -0.158  -4.388  -2.682  0.00  0.00    +0.250 C 
ATOM      3  C   LIG    1       -0.258  -5.915  -2.662  0.00  0.00    +0.060 C 
ATOM      4  C   LIG    1        0.472  -6.485  -3.882  0.00  0.00    -0.010 C 
ATOM      5  C   LIG    1        1.924  -5.999  -3.868  0.00  0.00    +0.060 C 
ATOM      6  C   LIG    1        0.442  -8.014  -3.828  0.00  0.00    +0.050 C 
ATOM      7  C   LIG    1        1.942  -4.469  -3.844  0.00  0.00    +0.170 C 
ATOM      8  C   LIG    1        3.391  -3.977  -3.830  0.00  0.00    +0.080 C 
ATOM      9  H   LIG    1        1.691  -4.383  -1.822  0.00  0.00    +0.420 HD
ENDROOT
BRANCH   1  10
ATOM     10  C   LIG    1        1.343  -2.522  -2.581  0.00  0.00    +0.250 C 
BRANCH  10  11
ATOM     11  C   LIG    1        0.739  -2.027  -1.265  0.00  0.00    -0.030 C 
ATOM     12  C   LIG    1        1.584  -2.532  -0.094  0.00  0.00    +0.040 C 
BRANCH  11  13
ATOM     13  C   LIG    1        0.718  -0.497  -1.257  0.00  0.00    +0.030 C 
BRANCH  13  15
ATOM     14  C   LIG    1       -0.019   1.526   0.010  0.00  0.00    +0.020 C 
ATOM     15  C   LIG    1        0.002  -0.004   0.002  0.00  0.00    +0.000 C 
ENDBRANCH  13  15
ENDBRANCH  11  13
ENDBRANCH  10  11
ENDBRANCH   1  10
TORSDOF 4
ENDMDL
MODEL      624
REMARK  Name = ZINC001201539206
REMARK                            x       y       z     vdW  Elec       q    Type
REMARK                         _______ _______ _______ _____ _____    ______ ____
ROOT
ATOM      1  N   LIG    1       -3.008  -4.194   0.240  0.00  0.00    -0.380 N 
ATOM      2  H   LIG    1       -2.646  -4.483  -0.656  0.00  0.00    +0.420 HD
ENDROOT
BRANCH   1   3
ATOM      3  C   LIG    1       -4.359  -4.743   0.422  0.00  0.00    +0.160 C 
ATOM      4  C   LIG    1       -5.086  -4.764  -0.924  0.00  0.00    +0.090 C 
BRANCH   3   5
ATOM      5  C   LIG    1       -5.136  -3.868   1.408  0.00  0.00    +0.050 C 
ATOM      6  C   LIG    1       -4.499  -3.974   2.795  0.00  0.00    +0.030 C 
ENDBRANCH   3   5
ENDBRANCH   1   3
BRANCH   1   7
ATOM      7  C   LIG    1       -3.063  -2.728   0.297  0.00  0.00    +0.250 C 
BRANCH   7   8
ATOM      8  C   LIG    1       -1.693  -2.151  -0.065  0.00  0.00    -0.030 C 
ATOM      9  C   LIG    1       -1.367  -2.488  -1.522  0.00  0.00    +0.040 C 
BRANCH   8  10
ATOM     10  C   LIG    1       -1.715  -0.632   0.114  0.00  0.00    +0.030 C 
BRANCH  10  12
ATOM     11  C   LIG    1       -0.335   1.450   0.052  0.00  0.00    +0.020 C 
ATOM     12  C   LIG    1       -0.313  -0.069  -0.128  0.00  0.00    +0.000 C 
ENDBRANCH  10  12
ENDBRANCH   8  10
ENDBRANCH   7   8
ENDBRANCH   1   7
BRANCH   1  13
ATOM     13  C   LIG    1       -2.130  -4.693   1.307  0.00  0.00    +0.240 C 
BRANCH  13  14
ATOM     14  C   LIG    1       -1.943  -6.203   1.151  0.00  0.00    +0.020 C 
ATOM     15  C   LIG    1       -0.924  -6.700   2.177  0.00  0.00    +0.060 C 
ENDBRANCH  13  14
ENDBRANCH   1  13
TORSDOF 8
ENDMDL
MODEL      625
REMARK  Name = ZINC001201562959
REMARK                            x       y       z     vdW  Elec       q    Type
REMARK                         _______ _______ _______ _____ _____    ______ ____
ROOT
ATOM      1  C   LIG    1        1.547  -3.936  -2.566  0.00  0.00    +0.250 C 
ENDROOT
BRANCH   1   2
ATOM      2  N   LIG    1        2.323  -4.388  -3.728  0.00  0.00    -0.380 N 
ATOM      3  C   LIG    1        3.724  -3.972  -3.573  0.00  0.00    +0.320 C 
ATOM      4  H   LIG    1        1.942  -3.979  -4.567  0.00  0.00    +0.420 HD
BRANCH   2   5
ATOM      5  C   LIG    1        2.255  -5.853  -3.823  0.00  0.00    +0.290 C 
BRANCH   5   6
ATOM      6  C   LIG    1        2.958  -6.314  -5.101  0.00  0.00    -0.090 C 
ATOM      7  C   LIG    1        4.204  -7.188  -4.945  0.00  0.00    +0.050 C 
ATOM      8  C   LIG    1        2.895  -7.804  -5.444  0.00  0.00    +0.070 C 
ENDBRANCH   5   6
ENDBRANCH   2   5
ENDBRANCH   1   2
BRANCH   1   9
ATOM      9  C   LIG    1        1.514  -2.407  -2.538  0.00  0.00    -0.010 C 
BRANCH   9  10
ATOM     10  C   LIG    1        0.751  -1.891  -3.760  0.00  0.00    +0.000 C 
ATOM     11  C   LIG    1        0.838  -0.364  -3.808  0.00  0.00    +0.040 C 
ENDBRANCH   9  10
BRANCH   9  12
ATOM     12  C   LIG    1        0.812  -1.935  -1.263  0.00  0.00    +0.040 C 
BRANCH  12  13
ATOM     13  C   LIG    1        1.650  -2.330  -0.044  0.00  0.00    +0.000 C 
BRANCH  13  15
ATOM     14  C   LIG    1        1.855  -2.140   2.438  0.00  0.00    +0.000 C 
ATOM     15  C   LIG    1        1.018  -1.745   1.220  0.00  0.00    +0.000 C 
ENDBRANCH  13  15
ENDBRANCH  12  13
ENDBRANCH   9  12
ENDBRANCH   1   9
TORSDOF 8
ENDMDL
MODEL      626
REMARK  Name = ZINC001201553077
REMARK                            x       y       z     vdW  Elec       q    Type
REMARK                         _______ _______ _______ _____ _____    ______ ____
ROOT
ATOM      1  N   LIG    1        1.581  -4.024  -2.369  0.00  0.00    -0.390 N 
ATOM      2  C   LIG    1        0.259  -4.508  -2.787  0.00  0.00    +0.310 C 
ATOM      3  H   LIG    1        1.858  -4.494  -1.520  0.00  0.00    +0.420 HD
ENDROOT
BRANCH   1   4
ATOM      4  C   LIG    1        1.520  -2.576  -2.129  0.00  0.00    +0.250 C 
BRANCH   4   5
ATOM      5  C   LIG    1        0.595  -2.295  -0.943  0.00  0.00    -0.030 C 
ATOM      6  C   LIG    1        0.423  -0.783  -0.778  0.00  0.00    +0.070 C 
BRANCH   5   7
ATOM      7  C   LIG    1        1.208  -2.880   0.331  0.00  0.00    +0.000 C 
BRANCH   7   9
ATOM      8  C   LIG    1        0.840  -3.295   2.768  0.00  0.00    +0.010 C 
ATOM      9  C   LIG    1        0.227  -2.709   1.494  0.00  0.00    +0.010 C 
ENDBRANCH   7   9
ENDBRANCH   5   7
ENDBRANCH   4   5
ENDBRANCH   1   4
BRANCH   1  10
ATOM     10  C   LIG    1        2.562  -4.304  -3.426  0.00  0.00    +0.260 C 
BRANCH  10  11
ATOM     11  C   LIG    1        3.964  -3.944  -2.930  0.00  0.00    -0.020 C 
ATOM     12  C   LIG    1        4.421  -4.934  -1.830  0.00  0.00    +0.010 C 
ATOM     13  C   LIG    1        5.965  -4.828  -1.895  0.00  0.00    +0.030 C 
ATOM     14  C   LIG    1        6.272  -4.689  -3.400  0.00  0.00    +0.010 C 
ATOM     15  C   LIG    1        5.000  -4.127  -4.058  0.00  0.00    +0.040 C 
ENDBRANCH  10  11
ENDBRANCH   1  10
TORSDOF 6
ENDMDL
MODEL      627
REMARK  Name = ZINC001201564240
REMARK                            x       y       z     vdW  Elec       q    Type
REMARK                         _______ _______ _______ _____ _____    ______ ____
ROOT
ATOM      1  C   LIG    1        1.166  -3.832  -2.425  0.00  0.00    +0.250 C 
ENDROOT
BRANCH   1   2
ATOM      2  N   LIG    1       -0.239  -4.161  -2.701  0.00  0.00    -0.390 N 
ATOM      3  C   LIG    1       -0.594  -3.767  -4.089  0.00  0.00    +0.250 C 
ATOM      4  C   LIG    1       -1.829  -4.648  -4.402  0.00  0.00    +0.080 C 
ATOM      5  C   LIG    1       -1.485  -5.986  -3.708  0.00  0.00    +0.000 C 
ATOM      6  C   LIG    1       -2.734  -6.584  -3.060  0.00  0.00    +0.050 C 
ATOM      7  C   LIG    1       -0.443  -5.624  -2.632  0.00  0.00    +0.250 C 
ATOM      8  H   LIG    1       -0.842  -3.694  -2.041  0.00  0.00    +0.420 HD
ENDBRANCH   1   2
BRANCH   1   9
ATOM      9  C   LIG    1        1.332  -2.312  -2.365  0.00  0.00    -0.020 C 
BRANCH   9  10
ATOM     10  C   LIG    1        2.809  -1.968  -2.164  0.00  0.00    +0.040 C 
ATOM     11  C   LIG    1        3.603  -2.387  -3.403  0.00  0.00    +0.020 C 
ENDBRANCH   9  10
BRANCH   9  12
ATOM     12  C   LIG    1        0.515  -1.756  -1.197  0.00  0.00    +0.000 C 
BRANCH  12  13
ATOM     13  C   LIG    1        0.580  -0.228  -1.212  0.00  0.00    +0.020 C 
BRANCH  13  15
ATOM     14  C   LIG    1       -0.172   1.857  -0.058  0.00  0.00    +0.020 C 
ATOM     15  C   LIG    1       -0.237   0.329  -0.043  0.00  0.00    -0.010 C 
ENDBRANCH  13  15
ENDBRANCH  12  13
ENDBRANCH   9  12
ENDBRANCH   1   9
TORSDOF 6
ENDMDL
MODEL      628
REMARK  Name = ZINC001201563153
REMARK                            x       y       z     vdW  Elec       q    Type
REMARK                         _______ _______ _______ _____ _____    ______ ____
ROOT
ATOM      1  C   LIG    1        1.484  -2.435   2.533  0.00  0.00    -0.010 C 
ENDROOT
BRANCH   1   2
ATOM      2  C   LIG    1        2.915  -1.896   2.494  0.00  0.00    +0.000 C 
ATOM      3  C   LIG    1        2.889  -0.371   2.623  0.00  0.00    +0.040 C 
ENDBRANCH   1   2
BRANCH   1   4
ATOM      4  C   LIG    1        0.722  -1.950   1.297  0.00  0.00    +0.040 C 
BRANCH   4   5
ATOM      5  C   LIG    1       -0.745  -2.370   1.405  0.00  0.00    +0.000 C 
BRANCH   5   7
ATOM      6  C   LIG    1       -3.001  -2.194   0.345  0.00  0.00    +0.000 C 
ATOM      7  C   LIG    1       -1.533  -1.774   0.237  0.00  0.00    +0.000 C 
ENDBRANCH   5   7
ENDBRANCH   4   5
ENDBRANCH   1   4
BRANCH   1   8
ATOM      8  C   LIG    1        1.515  -3.965   2.545  0.00  0.00    +0.250 C 
BRANCH   8   9
ATOM      9  N   LIG    1        2.141  -4.432   3.789  0.00  0.00    -0.390 N 
ATOM     10  C   LIG    1        1.300  -4.052   4.932  0.00  0.00    +0.310 C 
ATOM     11  H   LIG    1        3.052  -4.010   3.886  0.00  0.00    +0.420 HD
BRANCH   9  12
ATOM     12  C   LIG    1        2.280  -5.894   3.748  0.00  0.00    +0.250 C 
BRANCH  12  13
ATOM     13  C   LIG    1        3.042  -6.368   4.987  0.00  0.00    +0.030 C 
ATOM     14  C   LIG    1        3.187  -7.891   4.944  0.00  0.00    +0.060 C 
ENDBRANCH  12  13
ENDBRANCH   9  12
ENDBRANCH   8   9
ENDBRANCH   1   8
TORSDOF 8
ENDMDL
MODEL      629
REMARK  Name = ZINC001201552606
REMARK                            x       y       z     vdW  Elec       q    Type
REMARK                         _______ _______ _______ _____ _____    ______ ____
ROOT
ATOM      1  N   LIG    1        1.474  -3.874  -2.179  0.00  0.00    -0.380 N 
ATOM      2  C   LIG    1        0.113  -4.378  -2.399  0.00  0.00    +0.250 C 
ATOM      3  C   LIG    1        0.067  -5.878  -2.098  0.00  0.00    +0.050 C 
ATOM      4  C   LIG    1        1.040  -6.609  -3.027  0.00  0.00    +0.040 C 
ATOM      5  C   LIG    1        2.443  -6.024  -2.843  0.00  0.00    -0.020 C 
ATOM      6  C   LIG    1        2.401  -4.519  -3.117  0.00  0.00    +0.250 C 
ATOM      7  H   LIG    1        1.759  -4.078  -1.233  0.00  0.00    +0.420 HD
ENDROOT
BRANCH   5   8
ATOM      8  C   LIG    1        3.409  -6.696  -3.822  0.00  0.00    +0.020 C 
ATOM      9  C   LIG    1        3.540  -8.179  -3.472  0.00  0.00    +0.030 C 
ENDBRANCH   5   8
BRANCH   1  10
ATOM     10  C   LIG    1        1.497  -2.421  -2.393  0.00  0.00    +0.250 C 
BRANCH  10  11
ATOM     11  C   LIG    1        2.873  -1.870  -2.014  0.00  0.00    -0.030 C 
ATOM     12  C   LIG    1        3.102  -2.059  -0.513  0.00  0.00    +0.040 C 
BRANCH  11  13
ATOM     13  C   LIG    1        2.939  -0.381  -2.356  0.00  0.00    +0.040 C 
BRANCH  13  15
ATOM     14  C   LIG    1        4.419   1.631  -2.436  0.00  0.00    +0.020 C 
ATOM     15  C   LIG    1        4.353   0.141  -2.094  0.00  0.00    +0.000 C 
ENDBRANCH  13  15
ENDBRANCH  11  13
ENDBRANCH  10  11
ENDBRANCH   1  10
TORSDOF 5
ENDMDL
MODEL      630
REMARK  Name = ZINC001201554074
REMARK                            x       y       z     vdW  Elec       q    Type
REMARK                         _______ _______ _______ _____ _____    ______ ____
ROOT
ATOM      1  N   LIG    1        0.964  -3.500  -2.702  0.00  0.00    -0.390 N 
ATOM      2  C   LIG    1       -0.350  -4.178  -2.717  0.00  0.00    +0.250 C 
ATOM      3  C   LIG    1       -0.043  -5.629  -3.162  0.00  0.00    +0.080 C 
ATOM      4  C   LIG    1        1.083  -5.405  -4.206  0.00  0.00    +0.070 C 
ATOM      5  C   LIG    1        1.868  -4.217  -3.620  0.00  0.00    +0.160 C 
ATOM      6  H   LIG    1        1.344  -3.518  -1.768  0.00  0.00    +0.420 HD
ENDROOT
BRANCH   5   7
ATOM      7  C   LIG    1        2.319  -3.284  -4.746  0.00  0.00    -0.020 C 
ATOM      8  C   LIG    1        2.797  -4.117  -5.937  0.00  0.00    +0.070 C 
ATOM      9  C   LIG    1        3.465  -2.401  -4.248  0.00  0.00    +0.050 C 
ENDBRANCH   5   7
BRANCH   1  10
ATOM     10  C   LIG    1        0.808  -2.109  -3.147  0.00  0.00    +0.240 C 
BRANCH  10  11
ATOM     11  C   LIG    1       -0.046  -1.343  -2.135  0.00  0.00    -0.030 C 
ATOM     12  C   LIG    1        0.696  -1.260  -0.800  0.00  0.00    +0.040 C 
BRANCH  11  13
ATOM     13  C   LIG    1       -0.312   0.070  -2.659  0.00  0.00    +0.030 C 
BRANCH  13  15
ATOM     14  C   LIG    1       -1.535   2.207  -2.233  0.00  0.00    +0.020 C 
ATOM     15  C   LIG    1       -1.268   0.795  -1.710  0.00  0.00    +0.000 C 
ENDBRANCH  13  15
ENDBRANCH  11  13
ENDBRANCH  10  11
ENDBRANCH   1  10
TORSDOF 5
ENDMDL
MODEL      631
REMARK  Name = ZINC001201558350
REMARK                            x       y       z     vdW  Elec       q    Type
REMARK                         _______ _______ _______ _____ _____    ______ ____
ROOT
ATOM      1  C   LIG    1       -2.904  -4.055   0.558  0.00  0.00    +0.250 C 
ENDROOT
BRANCH   1   2
ATOM      2  N   LIG    1       -4.200  -4.746   0.553  0.00  0.00    -0.380 N 
ATOM      3  C   LIG    1       -4.653  -4.927  -0.833  0.00  0.00    +0.320 C 
ATOM      4  H   LIG    1       -4.878  -4.194   1.059  0.00  0.00    +0.420 HD
BRANCH   2   5
ATOM      5  C   LIG    1       -4.059  -6.058   1.198  0.00  0.00    +0.160 C 
ATOM      6  C   LIG    1       -3.076  -6.916   0.398  0.00  0.00    +0.090 C 
BRANCH   5   7
ATOM      7  C   LIG    1       -5.421  -6.753   1.245  0.00  0.00    +0.050 C 
ATOM      8  C   LIG    1       -6.372  -5.951   2.134  0.00  0.00    +0.020 C 
ENDBRANCH   5   7
ENDBRANCH   2   5
ENDBRANCH   1   2
BRANCH   1   9
ATOM      9  C   LIG    1       -3.083  -2.630   0.031  0.00  0.00    -0.010 C 
BRANCH   9  10
ATOM     10  C   LIG    1       -1.721  -1.937  -0.038  0.00  0.00    +0.040 C 
ATOM     11  C   LIG    1       -0.856  -2.615  -1.102  0.00  0.00    +0.020 C 
ENDBRANCH   9  10
BRANCH   9  12
ATOM     12  C   LIG    1       -4.006  -1.851   0.970  0.00  0.00    +0.000 C 
BRANCH  12  13
ATOM     13  C   LIG    1       -4.285  -0.468   0.378  0.00  0.00    +0.020 C 
BRANCH  13  15
ATOM     14  C   LIG    1       -5.487   1.695   0.725  0.00  0.00    +0.020 C 
ATOM     15  C   LIG    1       -5.208   0.312   1.317  0.00  0.00    -0.010 C 
ENDBRANCH  13  15
ENDBRANCH  12  13
ENDBRANCH   9  12
ENDBRANCH   1   9
TORSDOF 8
ENDMDL
MODEL      632
REMARK  Name = ZINC001201549840
REMARK                            x       y       z     vdW  Elec       q    Type
REMARK                         _______ _______ _______ _____ _____    ______ ____
ROOT
ATOM      1  N   LIG    1        1.569  -3.959  -2.452  0.00  0.00    -0.380 N 
ATOM      2  C   LIG    1        0.255  -4.461  -2.770  0.00  0.00    +0.240 C 
ATOM      3  C   LIG    1        0.030  -5.745  -1.955  0.00  0.00    +0.050 C 
ATOM      4  C   LIG    1        0.598  -6.930  -2.585  0.00  0.00    +0.030 C 
ATOM      5  C   LIG    1        2.134  -6.795  -2.740  0.00  0.00    +0.020 C 
ATOM      6  C   LIG    1        2.426  -5.856  -3.880  0.00  0.00    +0.060 C 
ATOM      7  C   LIG    1        2.578  -4.388  -3.444  0.00  0.00    +0.160 C 
ATOM      8  C   LIG    1        2.459  -3.495  -4.680  0.00  0.00    +0.070 C 
ATOM      9  H   LIG    1        1.839  -4.298  -1.541  0.00  0.00    +0.420 HD
ENDROOT
BRANCH   1  10
ATOM     10  C   LIG    1        1.525  -2.491  -2.420  0.00  0.00    +0.250 C 
BRANCH  10  11
ATOM     11  C   LIG    1        0.620  -2.032  -1.275  0.00  0.00    -0.020 C 
ATOM     12  C   LIG    1        0.463  -0.511  -1.326  0.00  0.00    +0.070 C 
BRANCH  11  13
ATOM     13  C   LIG    1        1.245  -2.436   0.062  0.00  0.00    +0.000 C 
BRANCH  13  15
ATOM     14  C   LIG    1        0.908  -2.493   2.537  0.00  0.00    +0.010 C 
ATOM     15  C   LIG    1        0.283  -2.089   1.200  0.00  0.00    +0.010 C 
ENDBRANCH  13  15
ENDBRANCH  11  13
ENDBRANCH  10  11
ENDBRANCH   1  10
TORSDOF 4
ENDMDL
MODEL      633
REMARK  Name = ZINC001201554073
REMARK                            x       y       z     vdW  Elec       q    Type
REMARK                         _______ _______ _______ _____ _____    ______ ____
ROOT
ATOM      1  N   LIG    1        1.254  -3.987  -2.641  0.00  0.00    -0.390 N 
ATOM      2  C   LIG    1       -0.165  -4.396  -2.718  0.00  0.00    +0.250 C 
ATOM      3  C   LIG    1       -0.439  -4.592  -4.230  0.00  0.00    +0.080 C 
ATOM      4  C   LIG    1        0.902  -5.204  -4.714  0.00  0.00    +0.070 C 
ATOM      5  C   LIG    1        1.947  -4.478  -3.846  0.00  0.00    +0.160 C 
ATOM      6  H   LIG    1        1.679  -4.388  -1.818  0.00  0.00    +0.420 HD
ENDROOT
BRANCH   5   7
ATOM      7  C   LIG    1        3.058  -5.450  -3.447  0.00  0.00    -0.020 C 
ATOM      8  C   LIG    1        4.071  -4.729  -2.555  0.00  0.00    +0.030 C 
ATOM      9  C   LIG    1        3.761  -5.965  -4.704  0.00  0.00    +0.070 C 
ENDBRANCH   5   7
BRANCH   1  10
ATOM     10  C   LIG    1        1.343  -2.522  -2.581  0.00  0.00    +0.250 C 
BRANCH  10  11
ATOM     11  C   LIG    1        0.739  -2.027  -1.265  0.00  0.00    -0.030 C 
ATOM     12  C   LIG    1        1.584  -2.532  -0.094  0.00  0.00    +0.040 C 
BRANCH  11  13
ATOM     13  C   LIG    1        0.718  -0.497  -1.257  0.00  0.00    +0.030 C 
BRANCH  13  15
ATOM     14  C   LIG    1       -0.019   1.526   0.010  0.00  0.00    +0.020 C 
ATOM     15  C   LIG    1        0.002  -0.004   0.002  0.00  0.00    +0.000 C 
ENDBRANCH  13  15
ENDBRANCH  11  13
ENDBRANCH  10  11
ENDBRANCH   1  10
TORSDOF 5
ENDMDL
MODEL      634
REMARK  Name = ZINC001201562276
REMARK                            x       y       z     vdW  Elec       q    Type
REMARK                         _______ _______ _______ _____ _____    ______ ____
ROOT
ATOM      1  C   LIG    1        1.166  -3.832  -2.426  0.00  0.00    +0.250 C 
ENDROOT
BRANCH   1   2
ATOM      2  N   LIG    1       -0.238  -4.161  -2.703  0.00  0.00    -0.390 N 
ATOM      3  C   LIG    1       -0.593  -3.766  -4.090  0.00  0.00    +0.250 C 
ATOM      4  C   LIG    1       -1.828  -4.647  -4.405  0.00  0.00    +0.070 C 
ATOM      5  C   LIG    1       -1.484  -5.985  -3.711  0.00  0.00    +0.070 C 
ATOM      6  C   LIG    1       -0.442  -5.624  -2.634  0.00  0.00    +0.160 C 
ATOM      7  C   LIG    1       -0.964  -6.019  -1.251  0.00  0.00    +0.090 C 
ATOM      8  H   LIG    1       -0.842  -3.694  -2.043  0.00  0.00    +0.420 HD
ENDBRANCH   1   2
BRANCH   1   9
ATOM      9  C   LIG    1        1.332  -2.312  -2.366  0.00  0.00    -0.020 C 
BRANCH   9  10
ATOM     10  C   LIG    1        2.809  -1.967  -2.165  0.00  0.00    +0.040 C 
ATOM     11  C   LIG    1        3.604  -2.387  -3.403  0.00  0.00    +0.020 C 
ENDBRANCH   9  10
BRANCH   9  12
ATOM     12  C   LIG    1        0.514  -1.756  -1.198  0.00  0.00    +0.000 C 
BRANCH  12  13
ATOM     13  C   LIG    1        0.579  -0.227  -1.212  0.00  0.00    +0.020 C 
BRANCH  13  15
ATOM     14  C   LIG    1       -0.174   1.857  -0.059  0.00  0.00    +0.020 C 
ATOM     15  C   LIG    1       -0.238   0.329  -0.044  0.00  0.00    -0.010 C 
ENDBRANCH  13  15
ENDBRANCH  12  13
ENDBRANCH   9  12
ENDBRANCH   1   9
TORSDOF 6
ENDMDL
MODEL      635
REMARK  Name = ZINC001201551077
REMARK                            x       y       z     vdW  Elec       q    Type
REMARK                         _______ _______ _______ _____ _____    ______ ____
ROOT
ATOM      1  N   LIG    1        1.727  -4.008   2.327  0.00  0.00    -0.380 N 
ATOM      2  C   LIG    1        2.474  -4.374   1.118  0.00  0.00    +0.250 C 
ATOM      3  C   LIG    1        2.531  -5.897   0.990  0.00  0.00    +0.050 C 
ATOM      4  C   LIG    1        3.232  -6.481   2.221  0.00  0.00    +0.040 C 
ATOM      5  C   LIG    1        2.487  -6.032   3.481  0.00  0.00    -0.020 C 
ATOM      6  C   LIG    1        3.223  -6.546   4.720  0.00  0.00    +0.070 C 
ATOM      7  C   LIG    1        2.433  -4.503   3.515  0.00  0.00    +0.170 C 
ATOM      8  C   LIG    1        1.689  -4.048   4.772  0.00  0.00    +0.080 C 
ATOM      9  H   LIG    1        0.806  -4.418   2.289  0.00  0.00    +0.420 HD
ENDROOT
BRANCH   1  10
ATOM     10  C   LIG    1        1.608  -2.546   2.404  0.00  0.00    +0.250 C 
BRANCH  10  11
ATOM     11  C   LIG    1        0.763  -2.041   1.233  0.00  0.00    -0.030 C 
ATOM     12  C   LIG    1       -0.666  -2.571   1.370  0.00  0.00    +0.040 C 
BRANCH  11  13
ATOM     13  C   LIG    1        0.742  -0.511   1.242  0.00  0.00    +0.030 C 
BRANCH  13  15
ATOM     14  C   LIG    1       -0.019   1.526   0.010  0.00  0.00    +0.020 C 
ATOM     15  C   LIG    1        0.002  -0.004   0.002  0.00  0.00    +0.000 C 
ENDBRANCH  13  15
ENDBRANCH  11  13
ENDBRANCH  10  11
ENDBRANCH   1  10
TORSDOF 4
ENDMDL
MODEL      636
REMARK  Name = ZINC001201539205
REMARK                            x       y       z     vdW  Elec       q    Type
REMARK                         _______ _______ _______ _____ _____    ______ ____
ROOT
ATOM      1  N   LIG    1       -3.237  -4.008   0.814  0.00  0.00    -0.380 N 
ATOM      2  H   LIG    1       -2.845  -4.740   0.241  0.00  0.00    +0.420 HD
ENDROOT
BRANCH   1   3
ATOM      3  C   LIG    1       -4.703  -4.044   0.718  0.00  0.00    +0.160 C 
ATOM      4  C   LIG    1       -5.292  -2.843   1.461  0.00  0.00    +0.080 C 
BRANCH   3   5
ATOM      5  C   LIG    1       -5.119  -3.987  -0.753  0.00  0.00    +0.050 C 
ATOM      6  C   LIG    1       -4.557  -5.205  -1.489  0.00  0.00    +0.030 C 
ENDBRANCH   3   5
ENDBRANCH   1   3
BRANCH   1   7
ATOM      7  C   LIG    1       -2.747  -2.704   0.348  0.00  0.00    +0.240 C 
BRANCH   7   8
ATOM      8  C   LIG    1       -1.315  -2.853  -0.169  0.00  0.00    -0.020 C 
ATOM      9  C   LIG    1       -0.392  -3.239   0.990  0.00  0.00    +0.040 C 
BRANCH   8  10
ATOM     10  C   LIG    1       -0.850  -1.525  -0.770  0.00  0.00    +0.040 C 
BRANCH  10  12
ATOM     11  C   LIG    1        0.999  -0.379  -2.000  0.00  0.00    +0.020 C 
ATOM     12  C   LIG    1        0.534  -1.707  -1.398  0.00  0.00    +0.000 C 
ENDBRANCH  10  12
ENDBRANCH   8  10
ENDBRANCH   7   8
ENDBRANCH   1   7
BRANCH   1  13
ATOM     13  C   LIG    1       -2.833  -4.212   2.212  0.00  0.00    +0.240 C 
BRANCH  13  14
ATOM     14  C   LIG    1       -3.219  -5.626   2.653  0.00  0.00    +0.010 C 
ATOM     15  C   LIG    1       -2.849  -5.819   4.125  0.00  0.00    +0.060 C 
ENDBRANCH  13  14
ENDBRANCH   1  13
TORSDOF 8
ENDMDL
MODEL      637
REMARK  Name = ZINC001201552612
REMARK                            x       y       z     vdW  Elec       q    Type
REMARK                         _______ _______ _______ _____ _____    ______ ____
ROOT
ATOM      1  N   LIG    1        1.254  -3.990  -2.641  0.00  0.00    -0.370 N 
ATOM      2  C   LIG    1       -0.156  -4.387  -2.645  0.00  0.00    +0.240 C 
ATOM      3  C   LIG    1       -0.251  -5.911  -2.595  0.00  0.00    +0.060 C 
ATOM      4  C   LIG    1        0.427  -6.524  -3.815  0.00  0.00    -0.010 C 
ATOM      5  C   LIG    1        1.823  -5.968  -4.038  0.00  0.00    +0.060 C 
ATOM      6  C   LIG    1       -0.447  -6.356  -5.057  0.00  0.00    +0.040 C 
ATOM      7  C   LIG    1        1.957  -4.472  -3.825  0.00  0.00    +0.160 C 
ATOM      8  C   LIG    1        1.533  -3.689  -5.067  0.00  0.00    +0.080 C 
ATOM      9  H   LIG    1        1.698  -4.371  -1.811  0.00  0.00    +0.420 HD
ENDROOT
BRANCH   1  10
ATOM     10  C   LIG    1        1.343  -2.522  -2.581  0.00  0.00    +0.250 C 
BRANCH  10  11
ATOM     11  C   LIG    1        0.739  -2.027  -1.265  0.00  0.00    -0.030 C 
ATOM     12  C   LIG    1        1.584  -2.532  -0.094  0.00  0.00    +0.040 C 
BRANCH  11  13
ATOM     13  C   LIG    1        0.718  -0.497  -1.257  0.00  0.00    +0.040 C 
BRANCH  13  15
ATOM     14  C   LIG    1       -0.019   1.526   0.010  0.00  0.00    +0.020 C 
ATOM     15  C   LIG    1        0.002  -0.004   0.002  0.00  0.00    +0.000 C 
ENDBRANCH  13  15
ENDBRANCH  11  13
ENDBRANCH  10  11
ENDBRANCH   1  10
TORSDOF 4
ENDMDL
MODEL      638
REMARK  Name = ZINC001201539541
REMARK                            x       y       z     vdW  Elec       q    Type
REMARK                         _______ _______ _______ _____ _____    ______ ____
ROOT
ATOM      1  N   LIG    1        1.475  -3.990  -2.532  0.00  0.00    -0.390 N 
ATOM      2  C   LIG    1        0.101  -4.497  -2.642  0.00  0.00    +0.310 C 
ATOM      3  H   LIG    1        1.890  -4.325  -1.676  0.00  0.00    +0.420 HD
ENDROOT
BRANCH   1   4
ATOM      4  C   LIG    1        1.455  -2.521  -2.524  0.00  0.00    +0.250 C 
BRANCH   4   5
ATOM      5  C   LIG    1        0.739  -2.027  -1.265  0.00  0.00    +0.030 C 
BRANCH   5   6
ATOM      6  C   LIG    1        0.718  -0.497  -1.257  0.00  0.00    +0.020 C 
BRANCH   6   8
ATOM      7  C   LIG    1       -0.019   1.526   0.010  0.00  0.00    +0.020 C 
ATOM      8  C   LIG    1        0.002  -0.004   0.002  0.00  0.00    +0.010 C 
ENDBRANCH   6   8
ENDBRANCH   5   6
ENDBRANCH   4   5
ENDBRANCH   1   4
BRANCH   1   9
ATOM      9  C   LIG    1        2.265  -4.462  -3.677  0.00  0.00    +0.250 C 
BRANCH   9  10
ATOM     10  C   LIG    1        2.390  -5.986  -3.615  0.00  0.00    -0.030 C 
ATOM     11  C   LIG    1        3.196  -6.382  -2.377  0.00  0.00    +0.040 C 
BRANCH  10  12
ATOM     12  C   LIG    1        3.105  -6.490  -4.871  0.00  0.00    +0.030 C 
BRANCH  12  13
ATOM     13  C   LIG    1        3.120  -8.020  -4.870  0.00  0.00    +0.000 C 
ATOM     14  C   LIG    1        3.835  -8.523  -6.125  0.00  0.00    +0.020 C 
ENDBRANCH  12  13
ENDBRANCH  10  12
ENDBRANCH   9  10
ENDBRANCH   1   9
TORSDOF 8
ENDMDL
MODEL      639
REMARK  Name = ZINC001201562274
REMARK                            x       y       z     vdW  Elec       q    Type
REMARK                         _______ _______ _______ _____ _____    ______ ____
ROOT
ATOM      1  C   LIG    1        1.547  -3.936  -2.566  0.00  0.00    +0.250 C 
ENDROOT
BRANCH   1   2
ATOM      2  N   LIG    1        2.323  -4.388  -3.728  0.00  0.00    -0.390 N 
ATOM      3  C   LIG    1        3.740  -3.999  -3.562  0.00  0.00    +0.250 C 
ATOM      4  C   LIG    1        4.547  -5.170  -4.176  0.00  0.00    +0.080 C 
ATOM      5  C   LIG    1        3.693  -6.395  -3.752  0.00  0.00    +0.070 C 
ATOM      6  C   LIG    1        2.252  -5.857  -3.831  0.00  0.00    +0.160 C 
ATOM      7  C   LIG    1        1.421  -6.424  -2.679  0.00  0.00    +0.080 C 
ATOM      8  H   LIG    1        1.953  -3.970  -4.568  0.00  0.00    +0.420 HD
ENDBRANCH   1   2
BRANCH   1   9
ATOM      9  C   LIG    1        1.514  -2.407  -2.538  0.00  0.00    -0.020 C 
BRANCH   9  10
ATOM     10  C   LIG    1        0.751  -1.891  -3.760  0.00  0.00    +0.000 C 
ATOM     11  C   LIG    1        0.838  -0.364  -3.808  0.00  0.00    +0.040 C 
ENDBRANCH   9  10
BRANCH   9  12
ATOM     12  C   LIG    1        0.812  -1.935  -1.263  0.00  0.00    +0.040 C 
BRANCH  12  13
ATOM     13  C   LIG    1        1.650  -2.330  -0.044  0.00  0.00    +0.000 C 
BRANCH  13  15
ATOM     14  C   LIG    1        1.855  -2.140   2.438  0.00  0.00    +0.000 C 
ATOM     15  C   LIG    1        1.018  -1.745   1.220  0.00  0.00    +0.000 C 
ENDBRANCH  13  15
ENDBRANCH  12  13
ENDBRANCH   9  12
ENDBRANCH   1   9
TORSDOF 6
ENDMDL
MODEL      640
REMARK  Name = ZINC001201564238
REMARK                            x       y       z     vdW  Elec       q    Type
REMARK                         _______ _______ _______ _____ _____    ______ ____
ROOT
ATOM      1  C   LIG    1        1.165  -3.831  -2.424  0.00  0.00    +0.250 C 
ENDROOT
BRANCH   1   2
ATOM      2  N   LIG    1       -0.241  -4.159  -2.700  0.00  0.00    -0.400 N 
ATOM      3  C   LIG    1       -0.595  -3.766  -4.081  0.00  0.00    +0.250 C 
ATOM      4  C   LIG    1       -1.582  -4.822  -4.612  0.00  0.00    +0.070 C 
ATOM      5  C   LIG    1       -1.736  -5.845  -3.463  0.00  0.00    -0.010 C 
ATOM      6  C   LIG    1       -1.797  -7.271  -4.012  0.00  0.00    +0.070 C 
ATOM      7  C   LIG    1       -0.447  -5.628  -2.629  0.00  0.00    +0.260 C 
ATOM      8  H   LIG    1       -0.843  -3.691  -2.040  0.00  0.00    +0.420 HD
ENDBRANCH   1   2
BRANCH   1   9
ATOM      9  C   LIG    1        1.331  -2.312  -2.365  0.00  0.00    -0.020 C 
BRANCH   9  10
ATOM     10  C   LIG    1        2.809  -1.968  -2.165  0.00  0.00    +0.040 C 
ATOM     11  C   LIG    1        3.602  -2.389  -3.405  0.00  0.00    +0.020 C 
ENDBRANCH   9  10
BRANCH   9  12
ATOM     12  C   LIG    1        0.516  -1.754  -1.196  0.00  0.00    +0.000 C 
BRANCH  12  13
ATOM     13  C   LIG    1        0.582  -0.226  -1.211  0.00  0.00    +0.020 C 
BRANCH  13  15
ATOM     14  C   LIG    1       -0.167   1.860  -0.058  0.00  0.00    +0.020 C 
ATOM     15  C   LIG    1       -0.233   0.332  -0.043  0.00  0.00    -0.010 C 
ENDBRANCH  13  15
ENDBRANCH  12  13
ENDBRANCH   9  12
ENDBRANCH   1   9
TORSDOF 6
ENDMDL
MODEL      641
REMARK  Name = ZINC001201551920
REMARK                            x       y       z     vdW  Elec       q    Type
REMARK                         _______ _______ _______ _____ _____    ______ ____
ROOT
ATOM      1  N   LIG    1        1.365  -4.390   2.376  0.00  0.00    -0.380 N 
ATOM      2  H   LIG    1        0.510  -4.874   2.147  0.00  0.00    +0.420 HD
ENDROOT
BRANCH   1   3
ATOM      3  C   LIG    1        2.463  -4.920   1.556  0.00  0.00    +0.240 C 
ATOM      4  C   LIG    1        2.071  -4.858   0.078  0.00  0.00    +0.080 C 
ENDBRANCH   1   3
BRANCH   1   5
ATOM      5  C   LIG    1        1.202  -2.955   2.108  0.00  0.00    +0.240 C 
BRANCH   5   6
ATOM      6  C   LIG    1        0.026  -2.414   2.924  0.00  0.00    -0.030 C 
ATOM      7  C   LIG    1       -1.263  -3.113   2.486  0.00  0.00    +0.040 C 
BRANCH   6   8
ATOM      8  C   LIG    1       -0.106  -0.908   2.692  0.00  0.00    +0.040 C 
BRANCH   8  10
ATOM      9  C   LIG    1       -1.332   1.161   3.369  0.00  0.00    +0.020 C 
ATOM     10  C   LIG    1       -1.200  -0.345   3.601  0.00  0.00    +0.000 C 
ENDBRANCH   8  10
ENDBRANCH   6   8
ENDBRANCH   5   6
ENDBRANCH   1   5
BRANCH   1  11
ATOM     11  C   LIG    1        1.675  -4.591   3.798  0.00  0.00    +0.160 C 
BRANCH  11  12
ATOM     12  C   LIG    1        3.057  -4.010   4.106  0.00  0.00    +0.050 C 
ATOM     13  C   LIG    1        2.917  -2.534   4.485  0.00  0.00    +0.040 C 
ENDBRANCH  11  12
BRANCH  11  14
ATOM     14  C   LIG    1        1.669  -6.088   4.115  0.00  0.00    +0.050 C 
ATOM     15  C   LIG    1        0.274  -6.659   3.852  0.00  0.00    +0.030 C 
ENDBRANCH  11  14
ENDBRANCH   1  11
TORSDOF 8
ENDMDL
MODEL      642
REMARK  Name = ZINC001201552610
REMARK                            x       y       z     vdW  Elec       q    Type
REMARK                         _______ _______ _______ _____ _____    ______ ____
ROOT
ATOM      1  N   LIG    1        1.254  -3.987  -2.641  0.00  0.00    -0.380 N 
ATOM      2  C   LIG    1       -0.158  -4.388  -2.682  0.00  0.00    +0.250 C 
ATOM      3  C   LIG    1       -0.258  -5.915  -2.662  0.00  0.00    +0.060 C 
ATOM      4  C   LIG    1        0.472  -6.485  -3.882  0.00  0.00    -0.010 C 
ATOM      5  C   LIG    1        1.924  -5.999  -3.868  0.00  0.00    +0.060 C 
ATOM      6  C   LIG    1       -0.218  -6.006  -5.161  0.00  0.00    +0.030 C 
ATOM      7  C   LIG    1        1.942  -4.469  -3.844  0.00  0.00    +0.160 C 
ATOM      8  C   LIG    1        3.391  -3.977  -3.830  0.00  0.00    +0.080 C 
ATOM      9  H   LIG    1        1.691  -4.383  -1.822  0.00  0.00    +0.420 HD
ENDROOT
BRANCH   1  10
ATOM     10  C   LIG    1        1.343  -2.522  -2.581  0.00  0.00    +0.250 C 
BRANCH  10  11
ATOM     11  C   LIG    1        0.739  -2.027  -1.265  0.00  0.00    -0.030 C 
ATOM     12  C   LIG    1        1.584  -2.532  -0.094  0.00  0.00    +0.040 C 
BRANCH  11  13
ATOM     13  C   LIG    1        0.718  -0.497  -1.257  0.00  0.00    +0.030 C 
BRANCH  13  15
ATOM     14  C   LIG    1       -0.019   1.526   0.010  0.00  0.00    +0.020 C 
ATOM     15  C   LIG    1        0.002  -0.004   0.002  0.00  0.00    +0.000 C 
ENDBRANCH  13  15
ENDBRANCH  11  13
ENDBRANCH  10  11
ENDBRANCH   1  10
TORSDOF 4
ENDMDL
MODEL      643
REMARK  Name = ZINC001201539543
REMARK                            x       y       z     vdW  Elec       q    Type
REMARK                         _______ _______ _______ _____ _____    ______ ____
ROOT
ATOM      1  N   LIG    1        1.111  -3.989  -2.730  0.00  0.00    -0.390 N 
ATOM      2  C   LIG    1       -0.196  -4.608  -2.989  0.00  0.00    +0.310 C 
ATOM      3  H   LIG    1        1.500  -4.368  -1.880  0.00  0.00    +0.420 HD
ENDROOT
BRANCH   1   4
ATOM      4  C   LIG    1        0.944  -2.536  -2.587  0.00  0.00    +0.250 C 
BRANCH   4   5
ATOM      5  C   LIG    1        0.102  -2.239  -1.345  0.00  0.00    +0.030 C 
BRANCH   5   6
ATOM      6  C   LIG    1       -0.071  -0.726  -1.196  0.00  0.00    +0.020 C 
BRANCH   6   8
ATOM      7  C   LIG    1       -1.087   1.084   0.195  0.00  0.00    +0.020 C 
ATOM      8  C   LIG    1       -0.913  -0.429   0.046  0.00  0.00    +0.010 C 
ENDBRANCH   6   8
ENDBRANCH   5   6
ENDBRANCH   4   5
ENDBRANCH   1   4
BRANCH   1   9
ATOM      9  C   LIG    1        2.017  -4.270  -3.851  0.00  0.00    +0.250 C 
BRANCH   9  10
ATOM     10  C   LIG    1        2.300  -5.772  -3.914  0.00  0.00    -0.030 C 
ATOM     11  C   LIG    1        3.131  -6.083  -5.161  0.00  0.00    +0.070 C 
BRANCH  10  12
ATOM     12  C   LIG    1        3.076  -6.197  -2.666  0.00  0.00    +0.000 C 
BRANCH  12  13
ATOM     13  C   LIG    1        3.251  -7.717  -2.667  0.00  0.00    +0.010 C 
ATOM     14  C   LIG    1        4.027  -8.142  -1.418  0.00  0.00    +0.010 C 
ENDBRANCH  12  13
ENDBRANCH  10  12
ENDBRANCH   9  10
ENDBRANCH   1   9
TORSDOF 8
ENDMDL
MODEL      644
REMARK  Name = ZINC001201553078
REMARK                            x       y       z     vdW  Elec       q    Type
REMARK                         _______ _______ _______ _____ _____    ______ ____
ROOT
ATOM      1  N   LIG    1        1.256  -4.087  -2.484  0.00  0.00    -0.390 N 
ATOM      2  C   LIG    1       -0.180  -4.390  -2.443  0.00  0.00    +0.310 C 
ATOM      3  H   LIG    1        1.728  -4.592  -1.748  0.00  0.00    +0.420 HD
ENDROOT
BRANCH   1   4
ATOM      4  C   LIG    1        1.459  -2.645  -2.297  0.00  0.00    +0.250 C 
BRANCH   4   5
ATOM      5  C   LIG    1        1.002  -2.244  -0.893  0.00  0.00    -0.030 C 
ATOM      6  C   LIG    1        1.899  -2.917   0.147  0.00  0.00    +0.040 C 
BRANCH   5   7
ATOM      7  C   LIG    1        1.095  -0.724  -0.741  0.00  0.00    +0.030 C 
BRANCH   7   9
ATOM      8  C   LIG    1        0.616   1.208   0.769  0.00  0.00    +0.020 C 
ATOM      9  C   LIG    1        0.522  -0.311   0.616  0.00  0.00    +0.000 C 
ENDBRANCH   7   9
ENDBRANCH   5   7
ENDBRANCH   4   5
ENDBRANCH   1   4
BRANCH   1  10
ATOM     10  C   LIG    1        1.805  -4.494  -3.785  0.00  0.00    +0.260 C 
BRANCH  10  11
ATOM     11  C   LIG    1        3.326  -4.329  -3.771  0.00  0.00    -0.020 C 
ATOM     12  C   LIG    1        3.977  -5.376  -2.833  0.00  0.00    +0.010 C 
ATOM     13  C   LIG    1        5.420  -5.479  -3.386  0.00  0.00    +0.030 C 
ATOM     14  C   LIG    1        5.247  -5.378  -4.916  0.00  0.00    +0.010 C 
ATOM     15  C   LIG    1        3.916  -4.647  -5.161  0.00  0.00    +0.040 C 
ENDBRANCH  10  11
ENDBRANCH   1  10
TORSDOF 6
ENDMDL
MODEL      645
REMARK  Name = ZINC001201562958
REMARK                            x       y       z     vdW  Elec       q    Type
REMARK                         _______ _______ _______ _____ _____    ______ ____
ROOT
ATOM      1  C   LIG    1        0.725  -4.249  -2.264  0.00  0.00    +0.250 C 
ENDROOT
BRANCH   1   2
ATOM      2  N   LIG    1       -0.700  -4.256  -2.623  0.00  0.00    -0.380 N 
ATOM      3  C   LIG    1       -0.882  -3.588  -3.918  0.00  0.00    +0.310 C 
ATOM      4  H   LIG    1       -1.228  -3.768  -1.915  0.00  0.00    +0.420 HD
BRANCH   2   5
ATOM      5  C   LIG    1       -1.174  -5.644  -2.717  0.00  0.00    +0.290 C 
BRANCH   5   6
ATOM      6  C   LIG    1       -2.683  -5.651  -2.968  0.00  0.00    -0.090 C 
ATOM      7  C   LIG    1       -3.176  -6.244  -4.290  0.00  0.00    +0.050 C 
ATOM      8  C   LIG    1       -3.390  -7.008  -2.981  0.00  0.00    +0.070 C 
ENDBRANCH   5   6
ENDBRANCH   2   5
ENDBRANCH   1   2
BRANCH   1   9
ATOM      9  C   LIG    1        1.181  -2.809  -2.017  0.00  0.00    -0.010 C 
BRANCH   9  10
ATOM     10  C   LIG    1        2.680  -2.794  -1.716  0.00  0.00    +0.040 C 
ATOM     11  C   LIG    1        3.455  -3.231  -2.961  0.00  0.00    +0.020 C 
ENDBRANCH   9  10
BRANCH   9  12
ATOM     12  C   LIG    1        0.415  -2.229  -0.827  0.00  0.00    +0.000 C 
BRANCH  12  13
ATOM     13  C   LIG    1        0.779  -0.752  -0.657  0.00  0.00    +0.020 C 
BRANCH  13  15
ATOM     14  C   LIG    1        0.378   1.305   0.703  0.00  0.00    +0.020 C 
ATOM     15  C   LIG    1        0.014  -0.172   0.534  0.00  0.00    -0.010 C 
ENDBRANCH  13  15
ENDBRANCH  12  13
ENDBRANCH   9  12
ENDBRANCH   1   9
TORSDOF 8
ENDMDL
MODEL      646
REMARK  Name = ZINC001201551075
REMARK                            x       y       z     vdW  Elec       q    Type
REMARK                         _______ _______ _______ _____ _____    ______ ____
ROOT
ATOM      1  N   LIG    1        1.727  -4.008   2.327  0.00  0.00    -0.380 N 
ATOM      2  C   LIG    1        2.474  -4.374   1.118  0.00  0.00    +0.250 C 
ATOM      3  C   LIG    1        2.531  -5.897   0.990  0.00  0.00    +0.050 C 
ATOM      4  C   LIG    1        3.232  -6.481   2.221  0.00  0.00    +0.050 C 
ATOM      5  C   LIG    1        2.487  -6.032   3.481  0.00  0.00    +0.010 C 
ATOM      6  C   LIG    1        1.065  -6.595   3.462  0.00  0.00    +0.050 C 
ATOM      7  C   LIG    1        2.433  -4.503   3.515  0.00  0.00    +0.170 C 
ATOM      8  C   LIG    1        1.689  -4.048   4.772  0.00  0.00    +0.080 C 
ATOM      9  H   LIG    1        0.806  -4.418   2.289  0.00  0.00    +0.420 HD
ENDROOT
BRANCH   1  10
ATOM     10  C   LIG    1        1.608  -2.546   2.404  0.00  0.00    +0.240 C 
BRANCH  10  11
ATOM     11  C   LIG    1        0.763  -2.041   1.233  0.00  0.00    -0.030 C 
ATOM     12  C   LIG    1       -0.666  -2.571   1.370  0.00  0.00    +0.040 C 
BRANCH  11  13
ATOM     13  C   LIG    1        0.742  -0.511   1.242  0.00  0.00    +0.030 C 
BRANCH  13  15
ATOM     14  C   LIG    1       -0.019   1.526   0.010  0.00  0.00    +0.020 C 
ATOM     15  C   LIG    1        0.002  -0.004   0.002  0.00  0.00    +0.000 C 
ENDBRANCH  13  15
ENDBRANCH  11  13
ENDBRANCH  10  11
ENDBRANCH   1  10
TORSDOF 4
ENDMDL
MODEL      647
REMARK  Name = ZINC001201539207
REMARK                            x       y       z     vdW  Elec       q    Type
REMARK                         _______ _______ _______ _____ _____    ______ ____
ROOT
ATOM      1  N   LIG    1       -2.998  -4.223   0.018  0.00  0.00    -0.380 N 
ATOM      2  H   LIG    1       -2.380  -4.694  -0.626  0.00  0.00    +0.420 HD
ENDROOT
BRANCH   1   3
ATOM      3  C   LIG    1       -4.324  -4.852  -0.027  0.00  0.00    +0.160 C 
ATOM      4  C   LIG    1       -5.288  -4.074   0.873  0.00  0.00    +0.090 C 
BRANCH   3   5
ATOM      5  C   LIG    1       -4.847  -4.840  -1.465  0.00  0.00    +0.050 C 
ATOM      6  C   LIG    1       -3.962  -5.733  -2.337  0.00  0.00    +0.030 C 
ENDBRANCH   3   5
ENDBRANCH   1   3
BRANCH   1   7
ATOM      7  C   LIG    1       -3.114  -2.808  -0.362  0.00  0.00    +0.240 C 
BRANCH   7   8
ATOM      8  C   LIG    1       -1.719  -2.184  -0.437  0.00  0.00    -0.030 C 
ATOM      9  C   LIG    1       -0.926  -2.843  -1.567  0.00  0.00    +0.040 C 
BRANCH   8  10
ATOM     10  C   LIG    1       -1.845  -0.684  -0.709  0.00  0.00    +0.030 C 
BRANCH  10  12
ATOM     11  C   LIG    1       -0.585   1.462  -0.932  0.00  0.00    +0.020 C 
ATOM     12  C   LIG    1       -0.459  -0.038  -0.660  0.00  0.00    +0.000 C 
ENDBRANCH  10  12
ENDBRANCH   8  10
ENDBRANCH   7   8
ENDBRANCH   1   7
BRANCH   1  13
ATOM     13  C   LIG    1       -2.454  -4.322   1.379  0.00  0.00    +0.240 C 
BRANCH  13  14
ATOM     14  C   LIG    1       -2.204  -5.792   1.722  0.00  0.00    +0.010 C 
ATOM     15  C   LIG    1       -1.684  -5.899   3.157  0.00  0.00    +0.060 C 
ENDBRANCH  13  14
ENDBRANCH   1  13
TORSDOF 8
ENDMDL
MODEL      648
REMARK  Name = ZINC001201549842
REMARK                            x       y       z     vdW  Elec       q    Type
REMARK                         _______ _______ _______ _____ _____    ______ ____
ROOT
ATOM      1  N   LIG    1        1.582  -3.937  -2.477  0.00  0.00    -0.380 N 
ATOM      2  C   LIG    1        0.238  -4.459  -2.807  0.00  0.00    +0.250 C 
ATOM      3  C   LIG    1        0.249  -5.916  -3.303  0.00  0.00    +0.060 C 
ATOM      4  C   LIG    1        1.165  -6.813  -2.513  0.00  0.00    +0.020 C 
ATOM      5  C   LIG    1        2.559  -6.823  -3.187  0.00  0.00    +0.030 C 
ATOM      6  C   LIG    1        3.282  -5.588  -2.911  0.00  0.00    +0.050 C 
ATOM      7  C   LIG    1        2.568  -4.338  -3.451  0.00  0.00    +0.160 C 
ATOM      8  C   LIG    1        3.581  -3.210  -3.656  0.00  0.00    +0.090 C 
ATOM      9  H   LIG    1        1.856  -4.285  -1.571  0.00  0.00    +0.420 HD
ENDROOT
BRANCH   1  10
ATOM     10  C   LIG    1        1.526  -2.470  -2.429  0.00  0.00    +0.250 C 
BRANCH  10  11
ATOM     11  C   LIG    1        0.539  -2.033  -1.345  0.00  0.00    -0.030 C 
ATOM     12  C   LIG    1        0.392  -0.510  -1.373  0.00  0.00    +0.070 C 
BRANCH  11  13
ATOM     13  C   LIG    1        1.062  -2.468   0.026  0.00  0.00    +0.000 C 
BRANCH  13  15
ATOM     14  C   LIG    1        0.541  -2.579   2.467  0.00  0.00    +0.010 C 
ATOM     15  C   LIG    1        0.018  -2.143   1.097  0.00  0.00    +0.010 C 
ENDBRANCH  13  15
ENDBRANCH  11  13
ENDBRANCH  10  11
ENDBRANCH   1  10
TORSDOF 4
ENDMDL
MODEL      649
REMARK  Name = ZINC001201552915
REMARK                            x       y       z     vdW  Elec       q    Type
REMARK                         _______ _______ _______ _____ _____    ______ ____
ROOT
ATOM      1  N   LIG    1       -2.867  -3.943   0.181  0.00  0.00    -0.380 N 
ATOM      2  C   LIG    1       -2.015  -4.229   1.342  0.00  0.00    +0.240 C 
ATOM      3  C   LIG    1       -1.790  -5.738   1.455  0.00  0.00    +0.060 C 
ATOM      4  C   LIG    1       -3.140  -6.439   1.626  0.00  0.00    +0.030 C 
ATOM      5  C   LIG    1       -4.046  -6.075   0.447  0.00  0.00    +0.060 C 
ATOM      6  C   LIG    1       -4.188  -4.553   0.373  0.00  0.00    +0.170 C 
ATOM      7  H   LIG    1       -2.439  -4.324  -0.650  0.00  0.00    +0.420 HD
ENDROOT
BRANCH   6   8
ATOM      8  C   LIG    1       -4.806  -4.035   1.673  0.00  0.00    +0.020 C 
ATOM      9  C   LIG    1       -6.237  -4.561   1.803  0.00  0.00    +0.060 C 
ENDBRANCH   6   8
BRANCH   1  10
ATOM     10  C   LIG    1       -3.017  -2.490   0.031  0.00  0.00    +0.250 C 
BRANCH  10  11
ATOM     11  C   LIG    1       -1.661  -1.870  -0.313  0.00  0.00    -0.030 C 
ATOM     12  C   LIG    1       -1.203  -2.373  -1.683  0.00  0.00    +0.040 C 
BRANCH  11  13
ATOM     13  C   LIG    1       -1.790  -0.346  -0.346  0.00  0.00    +0.040 C 
BRANCH  13  15
ATOM     14  C   LIG    1       -0.540   1.802  -0.600  0.00  0.00    +0.020 C 
ATOM     15  C   LIG    1       -0.411   0.278  -0.567  0.00  0.00    +0.000 C 
ENDBRANCH  13  15
ENDBRANCH  11  13
ENDBRANCH  10  11
ENDBRANCH   1  10
TORSDOF 5
ENDMDL
MODEL      650
REMARK  Name = ZINC001201552609
REMARK                            x       y       z     vdW  Elec       q    Type
REMARK                         _______ _______ _______ _____ _____    ______ ____
ROOT
ATOM      1  N   LIG    1        1.254  -3.987  -2.641  0.00  0.00    -0.380 N 
ATOM      2  C   LIG    1       -0.158  -4.388  -2.682  0.00  0.00    +0.250 C 
ATOM      3  C   LIG    1       -0.258  -5.915  -2.662  0.00  0.00    +0.050 C 
ATOM      4  C   LIG    1        0.472  -6.485  -3.882  0.00  0.00    +0.040 C 
ATOM      5  C   LIG    1        1.924  -5.999  -3.868  0.00  0.00    +0.010 C 
ATOM      6  C   LIG    1        1.942  -4.469  -3.844  0.00  0.00    +0.260 C 
ATOM      7  H   LIG    1        1.691  -4.383  -1.822  0.00  0.00    +0.420 HD
ENDROOT
BRANCH   5   8
ATOM      8  C   LIG    1        2.632  -6.541  -2.625  0.00  0.00    -0.000 C 
ATOM      9  C   LIG    1        2.717  -8.066  -2.710  0.00  0.00    +0.030 C 
ENDBRANCH   5   8
BRANCH   1  10
ATOM     10  C   LIG    1        1.343  -2.522  -2.581  0.00  0.00    +0.250 C 
BRANCH  10  11
ATOM     11  C   LIG    1        0.739  -2.027  -1.265  0.00  0.00    -0.030 C 
ATOM     12  C   LIG    1        1.584  -2.532  -0.094  0.00  0.00    +0.040 C 
BRANCH  11  13
ATOM     13  C   LIG    1        0.718  -0.497  -1.257  0.00  0.00    +0.040 C 
BRANCH  13  15
ATOM     14  C   LIG    1       -0.019   1.526   0.010  0.00  0.00    +0.020 C 
ATOM     15  C   LIG    1        0.002  -0.004   0.002  0.00  0.00    +0.000 C 
ENDBRANCH  13  15
ENDBRANCH  11  13
ENDBRANCH  10  11
ENDBRANCH   1  10
TORSDOF 5
ENDMDL
MODEL      651
REMARK  Name = ZINC001201554071
REMARK                            x       y       z     vdW  Elec       q    Type
REMARK                         _______ _______ _______ _____ _____    ______ ____
ROOT
ATOM      1  N   LIG    1        1.573  -3.946  -2.458  0.00  0.00    -0.390 N 
ATOM      2  C   LIG    1        0.248  -4.478  -2.844  0.00  0.00    +0.250 C 
ATOM      3  C   LIG    1        0.344  -4.706  -4.373  0.00  0.00    +0.080 C 
ATOM      4  C   LIG    1        1.807  -5.202  -4.525  0.00  0.00    +0.070 C 
ATOM      5  C   LIG    1        2.561  -4.382  -3.461  0.00  0.00    +0.160 C 
ATOM      6  H   LIG    1        1.830  -4.303  -1.550  0.00  0.00    +0.420 HD
ENDROOT
BRANCH   5   7
ATOM      7  C   LIG    1        3.629  -5.252  -2.795  0.00  0.00    -0.020 C 
ATOM      8  C   LIG    1        4.348  -4.440  -1.716  0.00  0.00    +0.030 C 
ATOM      9  C   LIG    1        4.641  -5.712  -3.846  0.00  0.00    +0.070 C 
ENDBRANCH   5   7
BRANCH   1  10
ATOM     10  C   LIG    1        1.524  -2.479  -2.417  0.00  0.00    +0.250 C 
BRANCH  10  11
ATOM     11  C   LIG    1        0.614  -2.030  -1.272  0.00  0.00    -0.030 C 
ATOM     12  C   LIG    1        0.452  -0.509  -1.315  0.00  0.00    +0.070 C 
BRANCH  11  13
ATOM     13  C   LIG    1        1.237  -2.439   0.064  0.00  0.00    +0.000 C 
BRANCH  13  15
ATOM     14  C   LIG    1        0.894  -2.511   2.538  0.00  0.00    +0.010 C 
ATOM     15  C   LIG    1        0.271  -2.103   1.202  0.00  0.00    +0.010 C 
ENDBRANCH  13  15
ENDBRANCH  11  13
ENDBRANCH  10  11
ENDBRANCH   1  10
TORSDOF 5
ENDMDL
MODEL      652
REMARK  Name = ZINC001201558352
REMARK                            x       y       z     vdW  Elec       q    Type
REMARK                         _______ _______ _______ _____ _____    ______ ____
ROOT
ATOM      1  C   LIG    1       -3.247  -3.831   0.389  0.00  0.00    +0.250 C 
ENDROOT
BRANCH   1   2
ATOM      2  N   LIG    1       -4.635  -4.303   0.288  0.00  0.00    -0.390 N 
ATOM      3  C   LIG    1       -5.250  -3.759  -0.929  0.00  0.00    +0.300 C 
ATOM      4  H   LIG    1       -5.155  -3.993   1.095  0.00  0.00    +0.420 HD
BRANCH   2   5
ATOM      5  C   LIG    1       -4.649  -5.771   0.230  0.00  0.00    +0.160 C 
ATOM      6  C   LIG    1       -3.735  -6.246  -0.900  0.00  0.00    +0.090 C 
BRANCH   5   7
ATOM      7  C   LIG    1       -4.153  -6.339   1.561  0.00  0.00    +0.050 C 
ATOM      8  C   LIG    1       -5.112  -5.930   2.680  0.00  0.00    +0.030 C 
ENDBRANCH   5   7
ENDBRANCH   2   5
ENDBRANCH   1   2
BRANCH   1   9
ATOM      9  C   LIG    1       -3.238  -2.316   0.599  0.00  0.00    -0.010 C 
BRANCH   9  10
ATOM     10  C   LIG    1       -1.793  -1.815   0.638  0.00  0.00    +0.040 C 
ATOM     11  C   LIG    1       -1.147  -2.014  -0.735  0.00  0.00    +0.020 C 
ENDBRANCH   9  10
BRANCH   9  12
ATOM     12  C   LIG    1       -3.929  -1.980   1.922  0.00  0.00    +0.000 C 
BRANCH  12  13
ATOM     13  C   LIG    1       -4.031  -0.461   2.073  0.00  0.00    +0.020 C 
BRANCH  13  15
ATOM     14  C   LIG    1       -4.825   1.395   3.546  0.00  0.00    +0.020 C 
ATOM     15  C   LIG    1       -4.723  -0.125   3.395  0.00  0.00    -0.010 C 
ENDBRANCH  13  15
ENDBRANCH  12  13
ENDBRANCH   9  12
ENDBRANCH   1   9
TORSDOF 8
ENDMDL
MODEL      653
REMARK  Name = ZINC001201551078
REMARK                            x       y       z     vdW  Elec       q    Type
REMARK                         _______ _______ _______ _____ _____    ______ ____
ROOT
ATOM      1  N   LIG    1        1.727  -4.008   2.327  0.00  0.00    -0.380 N 
ATOM      2  C   LIG    1        2.474  -4.374   1.118  0.00  0.00    +0.240 C 
ATOM      3  C   LIG    1        2.531  -5.897   0.990  0.00  0.00    +0.060 C 
ATOM      4  C   LIG    1        3.232  -6.481   2.221  0.00  0.00    +0.030 C 
ATOM      5  C   LIG    1        2.487  -6.032   3.481  0.00  0.00    -0.020 C 
ATOM      6  C   LIG    1        3.223  -6.546   4.720  0.00  0.00    +0.070 C 
ATOM      7  C   LIG    1        2.433  -4.503   3.515  0.00  0.00    +0.170 C 
ATOM      8  C   LIG    1        3.857  -3.943   3.534  0.00  0.00    +0.080 C 
ATOM      9  H   LIG    1        0.806  -4.418   2.289  0.00  0.00    +0.420 HD
ENDROOT
BRANCH   1  10
ATOM     10  C   LIG    1        1.608  -2.546   2.404  0.00  0.00    +0.250 C 
BRANCH  10  11
ATOM     11  C   LIG    1        0.763  -2.041   1.233  0.00  0.00    -0.030 C 
ATOM     12  C   LIG    1       -0.666  -2.571   1.370  0.00  0.00    +0.040 C 
BRANCH  11  13
ATOM     13  C   LIG    1        0.742  -0.511   1.242  0.00  0.00    +0.030 C 
BRANCH  13  15
ATOM     14  C   LIG    1       -0.019   1.526   0.010  0.00  0.00    +0.020 C 
ATOM     15  C   LIG    1        0.002  -0.004   0.002  0.00  0.00    +0.000 C 
ENDBRANCH  13  15
ENDBRANCH  11  13
ENDBRANCH  10  11
ENDBRANCH   1  10
TORSDOF 4
ENDMDL
MODEL      654
REMARK  Name = ZINC001201562273
REMARK                            x       y       z     vdW  Elec       q    Type
REMARK                         _______ _______ _______ _____ _____    ______ ____
ROOT
ATOM      1  C   LIG    1        1.142  -3.816  -2.443  0.00  0.00    +0.250 C 
ENDROOT
BRANCH   1   2
ATOM      2  N   LIG    1       -0.276  -4.096  -2.709  0.00  0.00    -0.390 N 
ATOM      3  C   LIG    1       -0.627  -3.635  -4.069  0.00  0.00    +0.250 C 
ATOM      4  C   LIG    1       -1.641  -4.682  -4.593  0.00  0.00    +0.080 C 
ATOM      5  C   LIG    1       -1.069  -5.996  -3.999  0.00  0.00    +0.070 C 
ATOM      6  C   LIG    1       -0.518  -5.548  -2.632  0.00  0.00    +0.160 C 
ATOM      7  C   LIG    1        0.790  -6.283  -2.332  0.00  0.00    +0.080 C 
ATOM      8  H   LIG    1       -0.850  -3.619  -2.030  0.00  0.00    +0.420 HD
ENDBRANCH   1   2
BRANCH   1   9
ATOM      9  C   LIG    1        1.369  -2.303  -2.426  0.00  0.00    -0.020 C 
BRANCH   9  10
ATOM     10  C   LIG    1        2.859  -2.013  -2.239  0.00  0.00    +0.040 C 
ATOM     11  C   LIG    1        3.632  -2.498  -3.467  0.00  0.00    +0.020 C 
ENDBRANCH   9  10
BRANCH   9  12
ATOM     12  C   LIG    1        0.579  -1.682  -1.272  0.00  0.00    +0.000 C 
BRANCH  12  13
ATOM     13  C   LIG    1        0.705  -0.158  -1.330  0.00  0.00    +0.020 C 
BRANCH  13  15
ATOM     14  C   LIG    1        0.042   1.987  -0.235  0.00  0.00    +0.020 C 
ATOM     15  C   LIG    1       -0.084   0.463  -0.177  0.00  0.00    -0.010 C 
ENDBRANCH  13  15
ENDBRANCH  12  13
ENDBRANCH   9  12
ENDBRANCH   1   9
TORSDOF 6
ENDMDL
MODEL      655
REMARK  Name = ZINC001201562277
REMARK                            x       y       z     vdW  Elec       q    Type
REMARK                         _______ _______ _______ _____ _____    ______ ____
ROOT
ATOM      1  C   LIG    1        1.547  -3.936  -2.566  0.00  0.00    +0.250 C 
ENDROOT
BRANCH   1   2
ATOM      2  N   LIG    1        2.324  -4.388  -3.728  0.00  0.00    -0.390 N 
ATOM      3  C   LIG    1        3.755  -4.029  -3.558  0.00  0.00    +0.250 C 
ATOM      4  C   LIG    1        4.482  -5.016  -4.505  0.00  0.00    +0.070 C 
ATOM      5  C   LIG    1        3.663  -6.317  -4.345  0.00  0.00    +0.070 C 
ATOM      6  C   LIG    1        2.285  -5.863  -3.825  0.00  0.00    +0.160 C 
ATOM      7  C   LIG    1        1.190  -6.300  -4.801  0.00  0.00    +0.090 C 
ATOM      8  H   LIG    1        1.959  -3.974  -4.573  0.00  0.00    +0.420 HD
ENDBRANCH   1   2
BRANCH   1   9
ATOM      9  C   LIG    1        1.514  -2.407  -2.538  0.00  0.00    -0.020 C 
BRANCH   9  10
ATOM     10  C   LIG    1        0.751  -1.891  -3.760  0.00  0.00    +0.000 C 
ATOM     11  C   LIG    1        0.838  -0.364  -3.808  0.00  0.00    +0.040 C 
ENDBRANCH   9  10
BRANCH   9  12
ATOM     12  C   LIG    1        0.812  -1.935  -1.263  0.00  0.00    +0.040 C 
BRANCH  12  13
ATOM     13  C   LIG    1        1.650  -2.330  -0.044  0.00  0.00    +0.000 C 
BRANCH  13  15
ATOM     14  C   LIG    1        1.855  -2.140   2.438  0.00  0.00    +0.000 C 
ATOM     15  C   LIG    1        1.017  -1.745   1.220  0.00  0.00    +0.000 C 
ENDBRANCH  13  15
ENDBRANCH  12  13
ENDBRANCH   9  12
ENDBRANCH   1   9
TORSDOF 6
ENDMDL
MODEL      656
REMARK  Name = ZINC001201539204
REMARK                            x       y       z     vdW  Elec       q    Type
REMARK                         _______ _______ _______ _____ _____    ______ ____
ROOT
ATOM      1  N   LIG    1       -4.953  -3.265  -0.207  0.00  0.00    -0.380 N 
ATOM      2  H   LIG    1       -4.858  -3.979  -0.914  0.00  0.00    +0.420 HD
ENDROOT
BRANCH   1   3
ATOM      3  C   LIG    1       -5.500  -2.044  -0.815  0.00  0.00    +0.160 C 
ATOM      4  C   LIG    1       -5.152  -2.016  -2.305  0.00  0.00    +0.090 C 
BRANCH   3   5
ATOM      5  C   LIG    1       -4.895  -0.818  -0.128  0.00  0.00    +0.050 C 
ATOM      6  C   LIG    1       -5.334  -0.787   1.338  0.00  0.00    +0.030 C 
ENDBRANCH   3   5
ENDBRANCH   1   3
BRANCH   1   7
ATOM      7  C   LIG    1       -3.637  -2.975   0.376  0.00  0.00    +0.250 C 
BRANCH   7   8
ATOM      8  C   LIG    1       -2.618  -2.761  -0.745  0.00  0.00    -0.020 C 
ATOM      9  C   LIG    1       -2.545  -4.019  -1.614  0.00  0.00    +0.040 C 
BRANCH   8  10
ATOM     10  C   LIG    1       -1.242  -2.481  -0.138  0.00  0.00    +0.030 C 
BRANCH  10  12
ATOM     11  C   LIG    1        1.125  -1.864  -0.646  0.00  0.00    +0.020 C 
ATOM     12  C   LIG    1       -0.251  -2.145  -1.254  0.00  0.00    +0.000 C 
ENDBRANCH  10  12
ENDBRANCH   8  10
ENDBRANCH   7   8
ENDBRANCH   1   7
BRANCH   1  13
ATOM     13  C   LIG    1       -5.862  -3.737   0.846  0.00  0.00    +0.240 C 
BRANCH  13  14
ATOM     14  C   LIG    1       -7.187  -4.174   0.218  0.00  0.00    +0.020 C 
ATOM     15  C   LIG    1       -8.073  -4.812   1.289  0.00  0.00    +0.060 C 
ENDBRANCH  13  14
ENDBRANCH   1  13
TORSDOF 8
ENDMDL
MODEL      657
REMARK  Name = ZINC001201551076
REMARK                            x       y       z     vdW  Elec       q    Type
REMARK                         _______ _______ _______ _____ _____    ______ ____
ROOT
ATOM      1  N   LIG    1        1.727  -4.008   2.327  0.00  0.00    -0.380 N 
ATOM      2  C   LIG    1        2.474  -4.374   1.118  0.00  0.00    +0.240 C 
ATOM      3  C   LIG    1        2.531  -5.897   0.990  0.00  0.00    +0.050 C 
ATOM      4  C   LIG    1        3.232  -6.481   2.221  0.00  0.00    +0.040 C 
ATOM      5  C   LIG    1        2.487  -6.032   3.481  0.00  0.00    +0.010 C 
ATOM      6  C   LIG    1        1.065  -6.595   3.462  0.00  0.00    +0.040 C 
ATOM      7  C   LIG    1        2.433  -4.503   3.515  0.00  0.00    +0.170 C 
ATOM      8  C   LIG    1        3.857  -3.943   3.534  0.00  0.00    +0.080 C 
ATOM      9  H   LIG    1        0.806  -4.418   2.289  0.00  0.00    +0.420 HD
ENDROOT
BRANCH   1  10
ATOM     10  C   LIG    1        1.608  -2.546   2.404  0.00  0.00    +0.250 C 
BRANCH  10  11
ATOM     11  C   LIG    1        0.763  -2.041   1.233  0.00  0.00    -0.030 C 
ATOM     12  C   LIG    1       -0.666  -2.571   1.370  0.00  0.00    +0.040 C 
BRANCH  11  13
ATOM     13  C   LIG    1        0.742  -0.511   1.242  0.00  0.00    +0.040 C 
BRANCH  13  15
ATOM     14  C   LIG    1       -0.019   1.526   0.010  0.00  0.00    +0.020 C 
ATOM     15  C   LIG    1        0.002  -0.004   0.002  0.00  0.00    +0.000 C 
ENDBRANCH  13  15
ENDBRANCH  11  13
ENDBRANCH  10  11
ENDBRANCH   1  10
TORSDOF 4
ENDMDL
MODEL      658
REMARK  Name = ZINC001201552613
REMARK                            x       y       z     vdW  Elec       q    Type
REMARK                         _______ _______ _______ _____ _____    ______ ____
ROOT
ATOM      1  N   LIG    1        1.254  -3.987  -2.641  0.00  0.00    -0.380 N 
ATOM      2  C   LIG    1       -0.158  -4.388  -2.682  0.00  0.00    +0.240 C 
ATOM      3  C   LIG    1       -0.258  -5.915  -2.662  0.00  0.00    +0.060 C 
ATOM      4  C   LIG    1        0.472  -6.485  -3.882  0.00  0.00    -0.020 C 
ATOM      5  C   LIG    1        1.924  -5.999  -3.868  0.00  0.00    +0.060 C 
ATOM      6  C   LIG    1        0.442  -8.014  -3.828  0.00  0.00    +0.050 C 
ATOM      7  C   LIG    1        1.942  -4.469  -3.844  0.00  0.00    +0.170 C 
ATOM      8  C   LIG    1        1.233  -3.932  -5.089  0.00  0.00    +0.070 C 
ATOM      9  H   LIG    1        1.691  -4.383  -1.822  0.00  0.00    +0.420 HD
ENDROOT
BRANCH   1  10
ATOM     10  C   LIG    1        1.343  -2.522  -2.581  0.00  0.00    +0.250 C 
BRANCH  10  11
ATOM     11  C   LIG    1        0.739  -2.027  -1.265  0.00  0.00    -0.030 C 
ATOM     12  C   LIG    1        1.584  -2.532  -0.094  0.00  0.00    +0.040 C 
BRANCH  11  13
ATOM     13  C   LIG    1        0.718  -0.497  -1.257  0.00  0.00    +0.030 C 
BRANCH  13  15
ATOM     14  C   LIG    1       -0.019   1.526   0.010  0.00  0.00    +0.020 C 
ATOM     15  C   LIG    1        0.002  -0.004   0.002  0.00  0.00    +0.000 C 
ENDBRANCH  13  15
ENDBRANCH  11  13
ENDBRANCH  10  11
ENDBRANCH   1  10
TORSDOF 4
ENDMDL
MODEL      659
REMARK  Name = ZINC001201552916
REMARK                            x       y       z     vdW  Elec       q    Type
REMARK                         _______ _______ _______ _____ _____    ______ ____
ROOT
ATOM      1  N   LIG    1       -2.777  -4.196   0.174  0.00  0.00    -0.380 N 
ATOM      2  C   LIG    1       -1.987  -4.562   1.356  0.00  0.00    +0.250 C 
ATOM      3  C   LIG    1       -2.031  -6.079   1.553  0.00  0.00    +0.050 C 
ATOM      4  C   LIG    1       -3.484  -6.521   1.751  0.00  0.00    +0.030 C 
ATOM      5  C   LIG    1       -4.314  -6.068   0.546  0.00  0.00    +0.060 C 
ATOM      6  C   LIG    1       -4.185  -4.551   0.387  0.00  0.00    +0.170 C 
ATOM      7  H   LIG    1       -2.424  -4.691  -0.632  0.00  0.00    +0.420 HD
ENDROOT
BRANCH   6   8
ATOM      8  C   LIG    1       -5.011  -4.093  -0.816  0.00  0.00    +0.030 C 
ATOM      9  C   LIG    1       -6.489  -4.402  -0.567  0.00  0.00    +0.060 C 
ENDBRANCH   6   8
BRANCH   1  10
ATOM     10  C   LIG    1       -2.668  -2.749  -0.057  0.00  0.00    +0.240 C 
BRANCH  10  11
ATOM     11  C   LIG    1       -1.222  -2.397  -0.410  0.00  0.00    -0.030 C 
ATOM     12  C   LIG    1       -0.849  -3.048  -1.744  0.00  0.00    +0.040 C 
BRANCH  11  13
ATOM     13  C   LIG    1       -1.081  -0.878  -0.528  0.00  0.00    +0.030 C 
BRANCH  13  15
ATOM     14  C   LIG    1        0.528   1.001  -0.876  0.00  0.00    +0.020 C 
ATOM     15  C   LIG    1        0.388  -0.518  -0.758  0.00  0.00    +0.000 C 
ENDBRANCH  13  15
ENDBRANCH  11  13
ENDBRANCH  10  11
ENDBRANCH   1  10
TORSDOF 5
ENDMDL
MODEL      660
REMARK  Name = ZINC001201554072
REMARK                            x       y       z     vdW  Elec       q    Type
REMARK                         _______ _______ _______ _____ _____    ______ ____
ROOT
ATOM      1  N   LIG    1        1.081  -3.029  -3.316  0.00  0.00    -0.380 N 
ATOM      2  C   LIG    1        0.156  -3.934  -4.031  0.00  0.00    +0.250 C 
ATOM      3  C   LIG    1        1.058  -5.065  -4.584  0.00  0.00    +0.070 C 
ATOM      4  C   LIG    1        2.340  -4.282  -4.974  0.00  0.00    +0.070 C 
ATOM      5  C   LIG    1        2.432  -3.202  -3.880  0.00  0.00    +0.160 C 
ATOM      6  H   LIG    1        1.091  -3.261  -2.333  0.00  0.00    +0.420 HD
ENDROOT
BRANCH   5   7
ATOM      7  C   LIG    1        2.919  -1.885  -4.488  0.00  0.00    -0.020 C 
ATOM      8  C   LIG    1        4.007  -2.174  -5.524  0.00  0.00    +0.070 C 
ATOM      9  C   LIG    1        3.490  -0.994  -3.384  0.00  0.00    +0.050 C 
ENDBRANCH   5   7
BRANCH   1  10
ATOM     10  C   LIG    1        0.646  -1.637  -3.492  0.00  0.00    +0.240 C 
BRANCH  10  11
ATOM     11  C   LIG    1       -0.660  -1.410  -2.728  0.00  0.00    -0.020 C 
ATOM     12  C   LIG    1       -1.783  -2.213  -3.387  0.00  0.00    +0.040 C 
BRANCH  11  13
ATOM     13  C   LIG    1       -1.013   0.078  -2.753  0.00  0.00    +0.030 C 
BRANCH  13  15
ATOM     14  C   LIG    1       -2.603   1.812  -1.911  0.00  0.00    +0.020 C 
ATOM     15  C   LIG    1       -2.249   0.324  -1.885  0.00  0.00    +0.000 C 
ENDBRANCH  13  15
ENDBRANCH  11  13
ENDBRANCH  10  11
ENDBRANCH   1  10
TORSDOF 5
ENDMDL
MODEL      661
REMARK  Name = ZINC001201552607
REMARK                            x       y       z     vdW  Elec       q    Type
REMARK                         _______ _______ _______ _____ _____    ______ ____
ROOT
ATOM      1  N   LIG    1        1.475  -3.874  -2.181  0.00  0.00    -0.380 N 
ATOM      2  C   LIG    1        0.115  -4.379  -2.401  0.00  0.00    +0.250 C 
ATOM      3  C   LIG    1        0.068  -5.879  -2.102  0.00  0.00    +0.050 C 
ATOM      4  C   LIG    1        1.042  -6.610  -3.030  0.00  0.00    +0.040 C 
ATOM      5  C   LIG    1        2.445  -6.024  -2.845  0.00  0.00    +0.010 C 
ATOM      6  C   LIG    1        2.402  -4.519  -3.119  0.00  0.00    +0.250 C 
ATOM      7  H   LIG    1        1.760  -4.079  -1.235  0.00  0.00    +0.420 HD
ENDROOT
BRANCH   5   8
ATOM      8  C   LIG    1        2.917  -6.272  -1.411  0.00  0.00    -0.000 C 
ATOM      9  C   LIG    1        3.073  -7.776  -1.179  0.00  0.00    +0.030 C 
ENDBRANCH   5   8
BRANCH   1  10
ATOM     10  C   LIG    1        1.497  -2.421  -2.394  0.00  0.00    +0.250 C 
BRANCH  10  11
ATOM     11  C   LIG    1        2.873  -1.871  -2.014  0.00  0.00    -0.030 C 
ATOM     12  C   LIG    1        3.101  -2.060  -0.513  0.00  0.00    +0.040 C 
BRANCH  11  13
ATOM     13  C   LIG    1        2.939  -0.381  -2.356  0.00  0.00    +0.040 C 
BRANCH  13  15
ATOM     14  C   LIG    1        4.418   1.631  -2.434  0.00  0.00    +0.020 C 
ATOM     15  C   LIG    1        4.353   0.141  -2.092  0.00  0.00    +0.000 C 
ENDBRANCH  13  15
ENDBRANCH  11  13
ENDBRANCH  10  11
ENDBRANCH   1  10
TORSDOF 5
ENDMDL
MODEL      662
REMARK  Name = ZINC001201558351
REMARK                            x       y       z     vdW  Elec       q    Type
REMARK                         _______ _______ _______ _____ _____    ______ ____
ROOT
ATOM      1  C   LIG    1       -2.914  -4.072   0.141  0.00  0.00    +0.250 C 
ENDROOT
BRANCH   1   2
ATOM      2  N   LIG    1       -4.201  -4.686  -0.213  0.00  0.00    -0.380 N 
ATOM      3  C   LIG    1       -4.438  -4.529  -1.655  0.00  0.00    +0.320 C 
ATOM      4  H   LIG    1       -4.942  -4.233   0.300  0.00  0.00    +0.420 HD
BRANCH   2   5
ATOM      5  C   LIG    1       -4.172  -6.115   0.126  0.00  0.00    +0.160 C 
ATOM      6  C   LIG    1       -3.137  -6.826  -0.749  0.00  0.00    +0.090 C 
BRANCH   5   7
ATOM      7  C   LIG    1       -5.553  -6.725  -0.120  0.00  0.00    +0.050 C 
ATOM      8  C   LIG    1       -6.565  -6.104   0.845  0.00  0.00    +0.020 C 
ENDBRANCH   5   7
ENDBRANCH   2   5
ENDBRANCH   1   2
BRANCH   1   9
ATOM      9  C   LIG    1       -2.995  -2.559  -0.068  0.00  0.00    -0.010 C 
BRANCH   9  10
ATOM     10  C   LIG    1       -4.010  -1.964   0.910  0.00  0.00    +0.000 C 
ATOM     11  C   LIG    1       -4.203  -0.477   0.603  0.00  0.00    +0.040 C 
ENDBRANCH   9  10
BRANCH   9  12
ATOM     12  C   LIG    1       -1.621  -1.935   0.181  0.00  0.00    +0.040 C 
BRANCH  12  13
ATOM     13  C   LIG    1       -0.641  -2.415  -0.892  0.00  0.00    +0.000 C 
BRANCH  13  15
ATOM     14  C   LIG    1        1.677  -2.174  -1.793  0.00  0.00    +0.000 C 
ATOM     15  C   LIG    1        0.697  -1.694  -0.720  0.00  0.00    +0.000 C 
ENDBRANCH  13  15
ENDBRANCH  12  13
ENDBRANCH   9  12
ENDBRANCH   1   9
TORSDOF 8
ENDMDL
MODEL      663
REMARK  Name = ZINC001201563152
REMARK                            x       y       z     vdW  Elec       q    Type
REMARK                         _______ _______ _______ _____ _____    ______ ____
ROOT
ATOM      1  C   LIG    1        1.287  -2.608   2.146  0.00  0.00    -0.010 C 
ENDROOT
BRANCH   1   2
ATOM      2  C   LIG    1        0.325  -2.531   3.333  0.00  0.00    +0.040 C 
ATOM      3  C   LIG    1        1.036  -3.016   4.598  0.00  0.00    +0.020 C 
ENDBRANCH   1   2
BRANCH   1   4
ATOM      4  C   LIG    1        0.627  -1.984   0.914  0.00  0.00    +0.000 C 
BRANCH   4   5
ATOM      5  C   LIG    1        0.403  -0.490   1.157  0.00  0.00    +0.020 C 
BRANCH   5   7
ATOM      6  C   LIG    1       -0.480   1.627   0.168  0.00  0.00    +0.020 C 
ATOM      7  C   LIG    1       -0.256   0.134  -0.074  0.00  0.00    -0.010 C 
ENDBRANCH   5   7
ENDBRANCH   4   5
ENDBRANCH   1   4
BRANCH   1   8
ATOM      8  C   LIG    1        1.624  -4.072   1.857  0.00  0.00    +0.250 C 
BRANCH   8   9
ATOM      9  N   LIG    1        2.602  -4.143   0.763  0.00  0.00    -0.390 N 
ATOM     10  C   LIG    1        3.874  -3.555   1.204  0.00  0.00    +0.300 C 
ATOM     11  H   LIG    1        2.253  -3.631  -0.034  0.00  0.00    +0.420 HD
BRANCH   9  12
ATOM     12  C   LIG    1        2.815  -5.547   0.387  0.00  0.00    +0.250 C 
BRANCH  12  13
ATOM     13  C   LIG    1        3.737  -5.614  -0.833  0.00  0.00    +0.020 C 
ATOM     14  C   LIG    1        3.959  -7.076  -1.224  0.00  0.00    +0.060 C 
ENDBRANCH  12  13
ENDBRANCH   9  12
ENDBRANCH   8   9
ENDBRANCH   1   8
TORSDOF 8
ENDMDL
MODEL      664
REMARK  Name = ZINC001201564241
REMARK                            x       y       z     vdW  Elec       q    Type
REMARK                         _______ _______ _______ _____ _____    ______ ____
ROOT
ATOM      1  C   LIG    1        1.547  -3.936  -2.566  0.00  0.00    +0.250 C 
ENDROOT
BRANCH   1   2
ATOM      2  N   LIG    1        2.324  -4.388  -3.728  0.00  0.00    -0.390 N 
ATOM      3  C   LIG    1        3.755  -4.029  -3.558  0.00  0.00    +0.250 C 
ATOM      4  C   LIG    1        4.482  -5.016  -4.505  0.00  0.00    +0.080 C 
ATOM      5  C   LIG    1        3.663  -6.317  -4.345  0.00  0.00    +0.000 C 
ATOM      6  C   LIG    1        3.516  -7.022  -5.695  0.00  0.00    +0.050 C 
ATOM      7  C   LIG    1        2.285  -5.863  -3.825  0.00  0.00    +0.250 C 
ATOM      8  H   LIG    1        1.959  -3.974  -4.573  0.00  0.00    +0.420 HD
ENDBRANCH   1   2
BRANCH   1   9
ATOM      9  C   LIG    1        1.514  -2.407  -2.538  0.00  0.00    -0.020 C 
BRANCH   9  10
ATOM     10  C   LIG    1        0.751  -1.891  -3.760  0.00  0.00    +0.000 C 
ATOM     11  C   LIG    1        0.838  -0.364  -3.808  0.00  0.00    +0.040 C 
ENDBRANCH   9  10
BRANCH   9  12
ATOM     12  C   LIG    1        0.812  -1.935  -1.263  0.00  0.00    +0.040 C 
BRANCH  12  13
ATOM     13  C   LIG    1        1.650  -2.330  -0.044  0.00  0.00    +0.000 C 
BRANCH  13  15
ATOM     14  C   LIG    1        1.855  -2.140   2.438  0.00  0.00    +0.000 C 
ATOM     15  C   LIG    1        1.017  -1.745   1.220  0.00  0.00    +0.000 C 
ENDBRANCH  13  15
ENDBRANCH  12  13
ENDBRANCH   9  12
ENDBRANCH   1   9
TORSDOF 6
ENDMDL
MODEL      665
REMARK  Name = ZINC000755249612
REMARK                            x       y       z     vdW  Elec       q    Type
REMARK                         _______ _______ _______ _____ _____    ______ ____
ROOT
ATOM      1  N   LIG    1        2.067  -4.969  -4.051  0.00  0.00    -0.380 N 
ATOM      2  H   LIG    1        1.660  -4.675  -4.927  0.00  0.00    +0.420 HD
ENDROOT
BRANCH   1   3
ATOM      3  C   LIG    1        1.225  -4.504  -2.940  0.00  0.00    +0.240 C 
BRANCH   3   4
ATOM      4  C   LIG    1        1.031  -2.990  -3.046  0.00  0.00    +0.030 C 
BRANCH   4   5
ATOM      5  C   LIG    1        0.154  -2.507  -1.889  0.00  0.00    +0.020 C 
BRANCH   5   6
ATOM      6  C   LIG    1       -0.040  -0.993  -1.994  0.00  0.00    +0.020 C 
BRANCH   6   8
ATOM      7  C   LIG    1       -1.111   1.004  -0.943  0.00  0.00    +0.020 C 
ATOM      8  C   LIG    1       -0.917  -0.509  -0.837  0.00  0.00    -0.010 C 
ENDBRANCH   6   8
ENDBRANCH   5   6
ENDBRANCH   4   5
ENDBRANCH   3   4
ENDBRANCH   1   3
BRANCH   1   9
ATOM      9  C   LIG    1        2.155  -6.435  -4.019  0.00  0.00    +0.280 C 
BRANCH   9  10
ATOM     10  C   LIG    1        2.925  -6.926  -5.247  0.00  0.00    -0.090 C 
ATOM     11  C   LIG    1        4.270  -7.615  -5.008  0.00  0.00    +0.040 C 
ATOM     12  C   LIG    1        3.054  -8.438  -5.441  0.00  0.00    +0.070 C 
ENDBRANCH   9  10
ENDBRANCH   1   9
BRANCH   1  13
ATOM     13  C   LIG    1        3.412  -4.394  -3.919  0.00  0.00    +0.240 C 
BRANCH  13  14
ATOM     14  C   LIG    1        3.993  -4.764  -2.553  0.00  0.00    +0.020 C 
ATOM     15  C   LIG    1        5.442  -4.279  -2.466  0.00  0.00    +0.060 C 
ENDBRANCH  13  14
ENDBRANCH   1  13
TORSDOF 9
ENDMDL
MODEL      666
REMARK  Name = ZINC001201620180
REMARK                            x       y       z     vdW  Elec       q    Type
REMARK                         _______ _______ _______ _____ _____    ______ ____
ROOT
ATOM      1  N   LIG    1       -2.938  -2.438   0.145  0.00  0.00    -0.390 N 
ATOM      2  H   LIG    1       -3.627  -2.041   0.767  0.00  0.00    +0.420 HD
ENDROOT
BRANCH   1   3
ATOM      3  C   LIG    1       -1.657  -1.741   0.326  0.00  0.00    +0.250 C 
BRANCH   3   4
ATOM      4  C   LIG    1       -1.863  -0.238   0.130  0.00  0.00    +0.030 C 
BRANCH   4   6
ATOM      5  C   LIG    1       -0.734   1.991   0.123  0.00  0.00    +0.030 C 
ATOM      6  C   LIG    1       -0.528   0.488   0.318  0.00  0.00    +0.020 C 
ENDBRANCH   4   6
ENDBRANCH   3   4
ENDBRANCH   1   3
BRANCH   1   7
ATOM      7  C   LIG    1       -2.767  -3.864   0.450  0.00  0.00    +0.240 C 
BRANCH   7   8
ATOM      8  C   LIG    1       -2.428  -4.032   1.932  0.00  0.00    +0.040 C 
BRANCH   8   9
ATOM      9  C   LIG    1       -2.387  -5.521   2.280  0.00  0.00    -0.010 C 
ATOM     10  C   LIG    1       -3.784  -6.122   2.115  0.00  0.00    +0.020 C 
ATOM     11  C   LIG    1       -1.926  -5.694   3.729  0.00  0.00    +0.040 C 
ENDBRANCH   8   9
ENDBRANCH   7   8
ENDBRANCH   1   7
BRANCH   1  12
ATOM     12  C   LIG    1       -3.387  -2.284  -1.245  0.00  0.00    +0.240 C 
BRANCH  12  13
ATOM     13  C   LIG    1       -4.784  -2.889  -1.400  0.00  0.00    +0.020 C 
ATOM     14  C   LIG    1       -5.308  -2.608  -2.809  0.00  0.00    +0.060 C 
ENDBRANCH  12  13
ENDBRANCH   1  12
TORSDOF 8
ENDMDL
MODEL      667
REMARK  Name = ZINC001201630601
REMARK                            x       y       z     vdW  Elec       q    Type
REMARK                         _______ _______ _______ _____ _____    ______ ____
ROOT
ATOM      1  N   LIG    1       -3.513  -0.640  -1.275  0.00  0.00    -0.380 N 
ATOM      2  C   LIG    1       -4.271   0.020  -0.203  0.00  0.00    +0.320 C 
ATOM      3  H   LIG    1       -3.503  -1.636  -1.115  0.00  0.00    +0.420 HD
ENDROOT
BRANCH   1   4
ATOM      4  C   LIG    1       -4.149  -0.358  -2.569  0.00  0.00    +0.170 C 
ATOM      5  C   LIG    1       -3.360  -1.045  -3.686  0.00  0.00    +0.040 C 
ATOM      6  C   LIG    1       -4.022  -0.752  -5.033  0.00  0.00    +0.040 C 
ATOM      7  C   LIG    1       -5.458  -1.281  -5.022  0.00  0.00    -0.020 C 
ATOM      8  C   LIG    1       -6.247  -0.594  -3.906  0.00  0.00    +0.040 C 
ATOM      9  C   LIG    1       -6.120  -0.988  -6.370  0.00  0.00    +0.030 C 
ATOM     10  C   LIG    1       -5.585  -0.887  -2.558  0.00  0.00    +0.040 C 
ENDBRANCH   1   4
BRANCH   1  11
ATOM     11  C   LIG    1       -2.135  -0.131  -1.286  0.00  0.00    +0.240 C 
BRANCH  11  12
ATOM     12  C   LIG    1       -1.433  -0.534   0.013  0.00  0.00    +0.040 C 
BRANCH  12  14
ATOM     13  C   LIG    1       -0.019   1.526   0.010  0.00  0.00    +0.020 C 
ATOM     14  C   LIG    1        0.002  -0.004   0.002  0.00  0.00    -0.010 C 
ATOM     15  C   LIG    1        0.742  -0.511   1.242  0.00  0.00    +0.040 C 
ENDBRANCH  12  14
ENDBRANCH  11  12
ENDBRANCH   1  11
TORSDOF 4
ENDMDL
MODEL      668
REMARK  Name = ZINC000164213682
REMARK                            x       y       z     vdW  Elec       q    Type
REMARK                         _______ _______ _______ _____ _____    ______ ____
ROOT
ATOM      1  N   LIG    1        2.236  -4.307  -3.220  0.00  0.00    -0.390 N 
ATOM      2  C   LIG    1        3.664  -4.000  -3.447  0.00  0.00    +0.250 C 
ATOM      3  C   LIG    1        4.101  -4.962  -4.580  0.00  0.00    +0.080 C 
ATOM      4  C   LIG    1        3.302  -6.244  -4.228  0.00  0.00    +0.070 C 
ATOM      5  C   LIG    1        1.978  -5.687  -3.673  0.00  0.00    +0.160 C 
ATOM      6  H   LIG    1        1.663  -3.665  -3.746  0.00  0.00    +0.420 HD
ENDROOT
BRANCH   5   7
ATOM      7  C   LIG    1        1.504  -6.544  -2.497  0.00  0.00    -0.020 C 
ATOM      8  C   LIG    1        1.740  -8.022  -2.816  0.00  0.00    +0.070 C 
ATOM      9  C   LIG    1        0.012  -6.305  -2.260  0.00  0.00    +0.050 C 
ENDBRANCH   5   7
BRANCH   1  10
ATOM     10  C   LIG    1        1.927  -4.190  -1.789  0.00  0.00    +0.240 C 
BRANCH  10  11
ATOM     11  C   LIG    1        2.094  -2.735  -1.348  0.00  0.00    +0.010 C 
BRANCH  11  12
ATOM     12  C   LIG    1        1.771  -2.613   0.142  0.00  0.00    +0.020 C 
BRANCH  12  13
ATOM     13  C   LIG    1        1.938  -1.157   0.583  0.00  0.00    +0.020 C 
BRANCH  13  15
ATOM     14  C   LIG    1        1.783   0.420   2.514  0.00  0.00    +0.020 C 
ATOM     15  C   LIG    1        1.616  -1.036   2.074  0.00  0.00    -0.010 C 
ENDBRANCH  13  15
ENDBRANCH  12  13
ENDBRANCH  11  12
ENDBRANCH  10  11
ENDBRANCH   1  10
TORSDOF 6
ENDMDL
MODEL      669
REMARK  Name = ZINC000674507955
REMARK                            x       y       z     vdW  Elec       q    Type
REMARK                         _______ _______ _______ _____ _____    ______ ____
ROOT
ATOM      1  N   LIG    1        0.421  -0.378  -1.156  0.00  0.00    -0.380 N 
ATOM      2  C   LIG    1        0.606  -1.835  -1.195  0.00  0.00    +0.320 C 
ATOM      3  H   LIG    1        1.289   0.077  -1.395  0.00  0.00    +0.420 HD
ENDROOT
BRANCH   1   5
ATOM      4  C   LIG    1       -1.357  -0.575   0.516  0.00  0.00    +0.090 C 
ATOM      5  C   LIG    1        0.012   0.027   0.196  0.00  0.00    +0.210 C 
BRANCH   5   6
ATOM      6  C   LIG    1       -0.072   1.553   0.267  0.00  0.00    -0.180 C 
ATOM      7  C   LIG    1       -1.466   2.183   0.286  0.00  0.00    +0.050 C 
ATOM      8  C   LIG    1        1.036   2.310  -0.467  0.00  0.00    +0.090 C 
ATOM      9  C   LIG    1       -0.615   2.171   1.557  0.00  0.00    +0.080 C 
ENDBRANCH   5   6
ENDBRANCH   1   5
BRANCH   1  10
ATOM     10  C   LIG    1       -0.618   0.010  -2.119  0.00  0.00    +0.240 C 
BRANCH  10  11
ATOM     11  C   LIG    1       -0.139  -0.299  -3.538  0.00  0.00    +0.040 C 
BRANCH  11  12
ATOM     12  C   LIG    1       -1.221   0.105  -4.541  0.00  0.00    -0.060 C 
ATOM     13  C   LIG    1       -2.502  -0.681  -4.253  0.00  0.00    +0.030 C 
ATOM     14  C   LIG    1       -0.742  -0.204  -5.961  0.00  0.00    +0.040 C 
ATOM     15  C   LIG    1       -1.502   1.603  -4.412  0.00  0.00    +0.030 C 
ENDBRANCH  11  12
ENDBRANCH  10  11
ENDBRANCH   1  10
TORSDOF 5
ENDMDL
MODEL      670
REMARK  Name = ZINC000674507956
REMARK                            x       y       z     vdW  Elec       q    Type
REMARK                         _______ _______ _______ _____ _____    ______ ____
ROOT
ATOM      1  N   LIG    1        0.713  -0.491   1.192  0.00  0.00    -0.380 N 
ATOM      2  C   LIG    1        0.025  -0.017   2.401  0.00  0.00    +0.320 C 
ATOM      3  H   LIG    1        1.659  -0.141   1.185  0.00  0.00    +0.420 HD
ENDROOT
BRANCH   1   5
ATOM      4  C   LIG    1       -0.019   1.526   0.010  0.00  0.00    +0.090 C 
ATOM      5  C   LIG    1        0.002  -0.004   0.002  0.00  0.00    +0.200 C 
BRANCH   5   6
ATOM      6  C   LIG    1        0.718  -0.497  -1.257  0.00  0.00    -0.180 C 
ATOM      7  C   LIG    1       -0.002  -1.537  -2.118  0.00  0.00    +0.050 C 
ATOM      8  C   LIG    1        2.241  -0.599  -1.153  0.00  0.00    +0.080 C 
ATOM      9  C   LIG    1        0.128  -0.094  -2.609  0.00  0.00    +0.080 C 
ENDBRANCH   5   6
ENDBRANCH   1   5
BRANCH   1  10
ATOM     10  C   LIG    1        0.733  -1.960   1.184  0.00  0.00    +0.250 C 
BRANCH  10  11
ATOM     11  C   LIG    1        1.578  -2.465   2.355  0.00  0.00    +0.040 C 
BRANCH  11  12
ATOM     12  C   LIG    1        1.599  -3.994   2.346  0.00  0.00    -0.060 C 
ATOM     13  C   LIG    1        0.170  -4.525   2.483  0.00  0.00    +0.030 C 
ATOM     14  C   LIG    1        2.444  -4.499   3.518  0.00  0.00    +0.040 C 
ATOM     15  C   LIG    1        2.203  -4.489   1.031  0.00  0.00    +0.030 C 
ENDBRANCH  11  12
ENDBRANCH  10  11
ENDBRANCH   1  10
TORSDOF 5
ENDMDL
MODEL      671
REMARK  Name = ZINC001201725152
REMARK                            x       y       z     vdW  Elec       q    Type
REMARK                         _______ _______ _______ _____ _____    ______ ____
ROOT
ATOM      1  N   LIG    1        1.241  -4.446  -2.191  0.00  0.00    -0.380 N 
ATOM      2  H   LIG    1        0.367  -4.496  -1.691  0.00  0.00    +0.420 HD
ENDROOT
BRANCH   1   3
ATOM      3  C   LIG    1        2.356  -4.540  -1.240  0.00  0.00    +0.160 C 
ATOM      4  C   LIG    1        1.897  -4.050   0.135  0.00  0.00    +0.080 C 
BRANCH   3   5
ATOM      5  C   LIG    1        3.518  -3.674  -1.728  0.00  0.00    +0.050 C 
ATOM      6  C   LIG    1        4.099  -4.274  -3.010  0.00  0.00    +0.030 C 
ENDBRANCH   3   5
ENDBRANCH   1   3
BRANCH   1   7
ATOM      7  C   LIG    1        1.320  -3.169  -2.913  0.00  0.00    +0.250 C 
BRANCH   7   8
ATOM      8  C   LIG    1        1.020  -2.019  -1.949  0.00  0.00    +0.030 C 
BRANCH   8   9
ATOM      9  C   LIG    1        0.929  -0.708  -2.732  0.00  0.00    +0.020 C 
BRANCH   9  11
ATOM     10  C   LIG    1        0.539   1.753  -2.551  0.00  0.00    +0.020 C 
ATOM     11  C   LIG    1        0.629   0.442  -1.768  0.00  0.00    +0.010 C 
ENDBRANCH   9  11
ENDBRANCH   8   9
ENDBRANCH   7   8
ENDBRANCH   1   7
BRANCH   1  12
ATOM     12  C   LIG    1        1.321  -5.556  -3.150  0.00  0.00    +0.240 C 
BRANCH  12  13
ATOM     13  C   LIG    1        1.121  -6.882  -2.413  0.00  0.00    +0.020 C 
ATOM     14  C   LIG    1        1.305  -8.043  -3.393  0.00  0.00    +0.060 C 
ENDBRANCH  12  13
ENDBRANCH   1  12
TORSDOF 8
ENDMDL
MODEL      672
REMARK  Name = ZINC001201725639
REMARK                            x       y       z     vdW  Elec       q    Type
REMARK                         _______ _______ _______ _____ _____    ______ ____
ROOT
ATOM      1  N   LIG    1        1.475  -3.990  -2.532  0.00  0.00    -0.410 N 
ATOM      2  C   LIG    1        0.257  -4.590  -3.109  0.00  0.00    +0.290 C 
ATOM      3  C   LIG    1        1.154  -5.653  -3.759  0.00  0.00    +0.100 C 
ATOM      4  C   LIG    1        2.224  -4.559  -3.664  0.00  0.00    +0.060 C 
ATOM      5  C   LIG    1        2.267  -3.643  -4.887  0.00  0.00    +0.060 C 
ATOM      6  C   LIG    1        2.904  -4.396  -6.058  0.00  0.00    +0.050 C 
ATOM      7  C   LIG    1        4.307  -4.858  -5.663  0.00  0.00    +0.020 C 
ATOM      8  C   LIG    1        4.218  -5.818  -4.476  0.00  0.00    +0.030 C 
ATOM      9  C   LIG    1        3.604  -5.090  -3.277  0.00  0.00    +0.050 C 
ATOM     10  H   LIG    1        1.734  -4.385  -1.640  0.00  0.00    +0.430 HD
ENDROOT
BRANCH   1  11
ATOM     11  C   LIG    1        1.455  -2.521  -2.524  0.00  0.00    +0.250 C 
BRANCH  11  12
ATOM     12  C   LIG    1        0.739  -2.027  -1.265  0.00  0.00    +0.020 C 
BRANCH  12  13
ATOM     13  C   LIG    1        0.718  -0.497  -1.257  0.00  0.00    +0.020 C 
BRANCH  13  15
ATOM     14  C   LIG    1       -0.019   1.526   0.010  0.00  0.00    +0.020 C 
ATOM     15  C   LIG    1        0.002  -0.004   0.002  0.00  0.00    +0.010 C 
ENDBRANCH  13  15
ENDBRANCH  12  13
ENDBRANCH  11  12
ENDBRANCH   1  11
TORSDOF 4
ENDMDL
MODEL      673
REMARK  Name = ZINC001201725153
REMARK                            x       y       z     vdW  Elec       q    Type
REMARK                         _______ _______ _______ _____ _____    ______ ____
ROOT
ATOM      1  N   LIG    1        1.569  -4.133  -2.403  0.00  0.00    -0.390 N 
ATOM      2  H   LIG    1        0.605  -4.069  -2.112  0.00  0.00    +0.420 HD
ENDROOT
BRANCH   1   3
ATOM      3  C   LIG    1        2.393  -4.581  -1.272  0.00  0.00    +0.160 C 
ATOM      4  C   LIG    1        3.807  -4.015  -1.416  0.00  0.00    +0.080 C 
BRANCH   3   5
ATOM      5  C   LIG    1        1.775  -4.085   0.037  0.00  0.00    +0.050 C 
ATOM      6  C   LIG    1        0.427  -4.773   0.258  0.00  0.00    +0.030 C 
ENDBRANCH   3   5
ENDBRANCH   1   3
BRANCH   1   7
ATOM      7  C   LIG    1        2.032  -2.814  -2.854  0.00  0.00    +0.250 C 
BRANCH   7   8
ATOM      8  C   LIG    1        1.763  -1.777  -1.762  0.00  0.00    +0.030 C 
BRANCH   8   9
ATOM      9  C   LIG    1        2.092  -0.380  -2.292  0.00  0.00    +0.020 C 
BRANCH   9  11
ATOM     10  C   LIG    1        2.151   2.054  -1.730  0.00  0.00    +0.020 C 
ATOM     11  C   LIG    1        1.822   0.657  -1.200  0.00  0.00    +0.010 C 
ENDBRANCH   9  11
ENDBRANCH   8   9
ENDBRANCH   7   8
ENDBRANCH   1   7
BRANCH   1  12
ATOM     12  C   LIG    1        1.685  -5.096  -3.506  0.00  0.00    +0.250 C 
BRANCH  12  13
ATOM     13  C   LIG    1        1.047  -6.424  -3.091  0.00  0.00    +0.020 C 
ATOM     14  C   LIG    1        1.274  -7.463  -4.191  0.00  0.00    +0.060 C 
ENDBRANCH  12  13
ENDBRANCH   1  12
TORSDOF 8
ENDMDL
MODEL      674
REMARK  Name = ZINC000674743593
REMARK                            x       y       z     vdW  Elec       q    Type
REMARK                         _______ _______ _______ _____ _____    ______ ____
ROOT
ATOM      1  N   LIG    1       -2.556  -4.062  -0.089  0.00  0.00    -0.380 N 
ATOM      2  H   LIG    1       -1.913  -4.522  -0.717  0.00  0.00    +0.420 HD
ENDROOT
BRANCH   1   3
ATOM      3  C   LIG    1       -3.933  -4.429  -0.444  0.00  0.00    +0.160 C 
ATOM      4  C   LIG    1       -4.912  -3.628   0.417  0.00  0.00    +0.040 C 
ATOM      5  C   LIG    1       -6.347  -4.010   0.047  0.00  0.00    +0.030 C 
ATOM      6  C   LIG    1       -6.593  -3.698  -1.430  0.00  0.00    +0.020 C 
ATOM      7  C   LIG    1       -5.614  -4.499  -2.291  0.00  0.00    +0.030 C 
ATOM      8  C   LIG    1       -4.180  -4.117  -1.921  0.00  0.00    +0.040 C 
ENDBRANCH   1   3
BRANCH   1   9
ATOM      9  C   LIG    1       -2.277  -4.482   1.291  0.00  0.00    +0.240 C 
ATOM     10  C   LIG    1       -2.304  -6.010   1.375  0.00  0.00    +0.080 C 
ENDBRANCH   1   9
BRANCH   1  11
ATOM     11  C   LIG    1       -2.392  -2.607  -0.201  0.00  0.00    +0.240 C 
BRANCH  11  12
ATOM     12  C   LIG    1       -0.928  -2.237   0.047  0.00  0.00    +0.030 C 
BRANCH  12  13
ATOM     13  C   LIG    1       -0.758  -0.722  -0.070  0.00  0.00    +0.020 C 
BRANCH  13  15
ATOM     14  C   LIG    1        0.876   1.164   0.062  0.00  0.00    +0.020 C 
ATOM     15  C   LIG    1        0.706  -0.352   0.178  0.00  0.00    +0.010 C 
ENDBRANCH  13  15
ENDBRANCH  12  13
ENDBRANCH  11  12
ENDBRANCH   1  11
TORSDOF 6
ENDMDL
MODEL      675
REMARK  Name = ZINC000674743980
REMARK                            x       y       z     vdW  Elec       q    Type
REMARK                         _______ _______ _______ _____ _____    ______ ____
ROOT
ATOM      1  N   LIG    1       -1.676   0.151   0.648  0.00  0.00    -0.380 N 
ATOM      2  H   LIG    1       -2.156   0.883   1.151  0.00  0.00    +0.420 HD
ENDROOT
BRANCH   1   3
ATOM      3  C   LIG    1       -1.974  -1.146   1.269  0.00  0.00    +0.160 C 
ATOM      4  C   LIG    1       -1.505  -1.134   2.725  0.00  0.00    +0.040 C 
ATOM      5  C   LIG    1       -1.815  -2.486   3.372  0.00  0.00    +0.030 C 
ATOM      6  C   LIG    1       -3.323  -2.740   3.324  0.00  0.00    +0.020 C 
ATOM      7  C   LIG    1       -3.792  -2.752   1.868  0.00  0.00    +0.030 C 
ATOM      8  C   LIG    1       -3.482  -1.400   1.221  0.00  0.00    +0.040 C 
ENDBRANCH   1   3
BRANCH   1  10
ATOM      9  C   LIG    1        0.504  -0.746  -0.014  0.00  0.00    +0.070 C 
ATOM     10  C   LIG    1       -0.228   0.395   0.694  0.00  0.00    +0.240 C 
ENDBRANCH   1  10
BRANCH   1  11
ATOM     11  C   LIG    1       -2.126   0.140  -0.750  0.00  0.00    +0.280 C 
BRANCH  11  12
ATOM     12  C   LIG    1       -1.926   1.507  -1.353  0.00  0.00    -0.130 C 
ATOM     13  C   LIG    1       -2.940   2.141  -1.889  0.00  0.00    -0.030 C 
ATOM     14  C   LIG    1       -2.771   3.558  -2.373  0.00  0.00    +0.100 C 
ATOM     15  C   LIG    1       -4.274   1.453  -2.022  0.00  0.00    +0.090 C 
ENDBRANCH  11  12
ENDBRANCH   1  11
TORSDOF 4
ENDMDL
MODEL      676
REMARK  Name = ZINC000674694465
REMARK                            x       y       z     vdW  Elec       q    Type
REMARK                         _______ _______ _______ _____ _____    ______ ____
ROOT
ATOM      1  C   LIG    1        0.588  -0.627   1.169  0.00  0.00    +0.160 C 
ATOM      2  C   LIG    1        0.721  -2.139   0.974  0.00  0.00    +0.060 C 
ATOM      3  C   LIG    1        1.502  -2.734   2.150  0.00  0.00    +0.030 C 
ATOM      4  C   LIG    1        0.787  -2.377   3.456  0.00  0.00    +0.050 C 
ATOM      5  C   LIG    1        0.652  -0.857   3.559  0.00  0.00    +0.250 C 
ATOM      6  N   LIG    1       -0.126  -0.353   2.421  0.00  0.00    -0.380 N 
ATOM      7  H   LIG    1       -1.026  -0.810   2.402  0.00  0.00    +0.420 HD
ENDROOT
BRANCH   1   9
ATOM      8  C   LIG    1        0.596  -0.239  -1.299  0.00  0.00    +0.060 C 
ATOM      9  C   LIG    1       -0.191  -0.029  -0.004  0.00  0.00    +0.030 C 
ENDBRANCH   1   9
BRANCH   6  10
ATOM     10  C   LIG    1       -0.318   1.096   2.564  0.00  0.00    +0.250 C 
BRANCH  10  11
ATOM     11  C   LIG    1       -1.168   1.378   3.805  0.00  0.00    +0.040 C 
BRANCH  11  12
ATOM     12  C   LIG    1       -1.367   2.888   3.953  0.00  0.00    -0.060 C 
ATOM     13  C   LIG    1       -0.006   3.571   4.101  0.00  0.00    +0.030 C 
ATOM     14  C   LIG    1       -2.217   3.170   5.194  0.00  0.00    +0.040 C 
ATOM     15  C   LIG    1       -2.079   3.433   2.713  0.00  0.00    +0.030 C 
ENDBRANCH  11  12
ENDBRANCH  10  11
ENDBRANCH   6  10
TORSDOF 4
ENDMDL
MODEL      677
REMARK  Name = ZINC001201754113
REMARK                            x       y       z     vdW  Elec       q    Type
REMARK                         _______ _______ _______ _____ _____    ______ ____
ROOT
ATOM      1  N   LIG    1        2.163  -4.524  -3.741  0.00  0.00    -0.380 N 
ATOM      2  C   LIG    1        3.574  -4.117  -3.693  0.00  0.00    +0.310 C 
ATOM      3  H   LIG    1        1.725  -4.123  -4.556  0.00  0.00    +0.420 HD
ENDROOT
BRANCH   1   4
ATOM      4  C   LIG    1        1.476  -4.051  -2.532  0.00  0.00    +0.250 C 
BRANCH   4   5
ATOM      5  C   LIG    1        1.455  -2.521  -2.524  0.00  0.00    +0.030 C 
BRANCH   5   6
ATOM      6  C   LIG    1        0.739  -2.027  -1.265  0.00  0.00    +0.020 C 
BRANCH   6   7
ATOM      7  C   LIG    1        0.718  -0.497  -1.257  0.00  0.00    +0.020 C 
BRANCH   7   9
ATOM      8  C   LIG    1       -0.019   1.526   0.010  0.00  0.00    +0.020 C 
ATOM      9  C   LIG    1        0.002  -0.004   0.002  0.00  0.00    -0.010 C 
ENDBRANCH   7   9
ENDBRANCH   6   7
ENDBRANCH   5   6
ENDBRANCH   4   5
ENDBRANCH   1   4
BRANCH   1  10
ATOM     10  C   LIG    1        2.079  -5.989  -3.810  0.00  0.00    +0.290 C 
BRANCH  10  11
ATOM     11  C   LIG    1        2.685  -6.473  -5.129  0.00  0.00    -0.090 C 
ATOM     12  C   LIG    1        3.935  -7.353  -5.051  0.00  0.00    +0.060 C 
ATOM     13  C   LIG    1        2.589  -7.968  -5.444  0.00  0.00    -0.090 C 
ATOM     14  C   LIG    1        2.396  -8.370  -6.907  0.00  0.00    +0.070 C 
ATOM     15  C   LIG    1        1.895  -8.863  -4.416  0.00  0.00    +0.070 C 
ENDBRANCH  10  11
ENDBRANCH   1  10
TORSDOF 7
ENDMDL
MODEL      678
REMARK  Name = ZINC000674694466
REMARK                            x       y       z     vdW  Elec       q    Type
REMARK                         _______ _______ _______ _____ _____    ______ ____
ROOT
ATOM      1  C   LIG    1        0.742  -0.511   1.242  0.00  0.00    +0.170 C 
ATOM      2  C   LIG    1        0.654  -2.038   1.299  0.00  0.00    +0.060 C 
ATOM      3  C   LIG    1        1.395  -2.540   2.541  0.00  0.00    +0.030 C 
ATOM      4  C   LIG    1        2.843  -2.044   2.494  0.00  0.00    +0.050 C 
ATOM      5  C   LIG    1        2.851  -0.517   2.393  0.00  0.00    +0.250 C 
ATOM      6  N   LIG    1        2.150  -0.102   1.172  0.00  0.00    -0.380 N 
ATOM      7  H   LIG    1        2.203   0.902   1.080  0.00  0.00    +0.420 HD
ENDROOT
BRANCH   1   9
ATOM      8  C   LIG    1       -0.019   1.526   0.010  0.00  0.00    +0.030 C 
ATOM      9  C   LIG    1        0.002  -0.004   0.002  0.00  0.00    +0.050 C 
ENDBRANCH   1   9
BRANCH   6  10
ATOM     10  C   LIG    1        2.784  -0.733   0.006  0.00  0.00    +0.240 C 
BRANCH  10  11
ATOM     11  C   LIG    1        4.212  -0.204  -0.146  0.00  0.00    +0.040 C 
BRANCH  11  12
ATOM     12  C   LIG    1        4.872  -0.861  -1.359  0.00  0.00    -0.060 C 
ATOM     13  C   LIG    1        4.908  -2.378  -1.162  0.00  0.00    +0.030 C 
ATOM     14  C   LIG    1        6.300  -0.333  -1.512  0.00  0.00    +0.040 C 
ATOM     15  C   LIG    1        4.069  -0.530  -2.619  0.00  0.00    +0.030 C 
ENDBRANCH  11  12
ENDBRANCH  10  11
ENDBRANCH   6  10
TORSDOF 4
ENDMDL
MODEL      679
REMARK  Name = ZINC000674743932
REMARK                            x       y       z     vdW  Elec       q    Type
REMARK                         _______ _______ _______ _____ _____    ______ ____
ROOT
ATOM      1  N   LIG    1       -1.647  -0.392   0.033  0.00  0.00    -0.380 N 
ATOM      2  H   LIG    1       -2.250   0.117   0.661  0.00  0.00    +0.420 HD
ENDROOT
BRANCH   1   3
ATOM      3  C   LIG    1       -1.841  -1.835   0.229  0.00  0.00    +0.160 C 
ATOM      4  C   LIG    1       -1.498  -2.203   1.674  0.00  0.00    +0.040 C 
ATOM      5  C   LIG    1       -1.699  -3.706   1.879  0.00  0.00    +0.030 C 
ATOM      6  C   LIG    1       -3.158  -4.068   1.593  0.00  0.00    +0.020 C 
ATOM      7  C   LIG    1       -3.501  -3.700   0.148  0.00  0.00    +0.030 C 
ATOM      8  C   LIG    1       -3.299  -2.197  -0.057  0.00  0.00    +0.040 C 
ENDBRANCH   1   3
BRANCH   1  10
ATOM      9  C   LIG    1        0.673  -0.911  -0.554  0.00  0.00    +0.080 C 
ATOM     10  C   LIG    1       -0.246  -0.044   0.308  0.00  0.00    +0.240 C 
ENDBRANCH   1  10
BRANCH   1  11
ATOM     11  C   LIG    1       -1.976  -0.038  -1.355  0.00  0.00    +0.240 C 
BRANCH  11  12
ATOM     12  C   LIG    1       -1.881   1.479  -1.530  0.00  0.00    +0.040 C 
BRANCH  12  13
ATOM     13  C   LIG    1       -2.359   1.861  -2.933  0.00  0.00    -0.010 C 
ATOM     14  C   LIG    1       -1.405   1.272  -3.974  0.00  0.00    +0.020 C 
ATOM     15  C   LIG    1       -2.383   3.384  -3.067  0.00  0.00    +0.040 C 
ENDBRANCH  12  13
ENDBRANCH  11  12
ENDBRANCH   1  11
TORSDOF 5
ENDMDL
MODEL      680
REMARK  Name = ZINC001201737637
REMARK                            x       y       z     vdW  Elec       q    Type
REMARK                         _______ _______ _______ _____ _____    ______ ____
ROOT
ATOM      1  N   LIG    1        1.078  -4.528   2.500  0.00  0.00    -0.380 N 
ATOM      2  H   LIG    1        0.104  -4.777   2.589  0.00  0.00    +0.420 HD
ENDROOT
BRANCH   1   3
ATOM      3  C   LIG    1        1.685  -5.309   1.414  0.00  0.00    +0.240 C 
ATOM      4  C   LIG    1        1.477  -6.801   1.680  0.00  0.00    +0.080 C 
ENDBRANCH   1   3
BRANCH   1   5
ATOM      5  C   LIG    1        1.192  -3.095   2.197  0.00  0.00    +0.240 C 
BRANCH   5   6
ATOM      6  C   LIG    1        0.315  -2.758   0.990  0.00  0.00    +0.020 C 
BRANCH   6   7
ATOM      7  C   LIG    1        0.433  -1.266   0.673  0.00  0.00    +0.020 C 
BRANCH   7   9
ATOM      8  C   LIG    1       -0.325   0.563  -0.850  0.00  0.00    +0.020 C 
ATOM      9  C   LIG    1       -0.444  -0.929  -0.534  0.00  0.00    +0.010 C 
ENDBRANCH   7   9
ENDBRANCH   6   7
ENDBRANCH   5   6
ENDBRANCH   1   5
BRANCH   1  10
ATOM     10  C   LIG    1        1.775  -4.819   3.760  0.00  0.00    +0.160 C 
BRANCH  10  11
ATOM     11  C   LIG    1        0.848  -4.511   4.938  0.00  0.00    +0.050 C 
ATOM     12  C   LIG    1       -0.357  -5.453   4.899  0.00  0.00    +0.030 C 
ENDBRANCH  10  11
BRANCH  10  13
ATOM     13  C   LIG    1        3.032  -3.952   3.860  0.00  0.00    +0.050 C 
ATOM     14  C   LIG    1        4.026  -4.369   2.775  0.00  0.00    +0.030 C 
ENDBRANCH  10  13
ENDBRANCH   1  10
TORSDOF 8
ENDMDL
MODEL      681
REMARK  Name = ZINC001201744659
REMARK                            x       y       z     vdW  Elec       q    Type
REMARK                         _______ _______ _______ _____ _____    ______ ____
ROOT
ATOM      1  N   LIG    1        1.475  -3.990  -2.532  0.00  0.00    -0.380 N 
ATOM      2  C   LIG    1        0.101  -4.497  -2.642  0.00  0.00    +0.320 C 
ATOM      3  H   LIG    1        1.890  -4.325  -1.676  0.00  0.00    +0.420 HD
ENDROOT
BRANCH   1   4
ATOM      4  C   LIG    1        2.265  -4.462  -3.677  0.00  0.00    +0.170 C 
ATOM      5  C   LIG    1        3.696  -3.933  -3.562  0.00  0.00    +0.040 C 
ATOM      6  C   LIG    1        4.519  -4.426  -4.754  0.00  0.00    +0.040 C 
ATOM      7  C   LIG    1        4.540  -5.956  -4.763  0.00  0.00    -0.020 C 
ATOM      8  C   LIG    1        3.109  -6.484  -4.877  0.00  0.00    +0.040 C 
ATOM      9  C   LIG    1        5.363  -6.448  -5.955  0.00  0.00    +0.030 C 
ATOM     10  C   LIG    1        2.286  -5.992  -3.685  0.00  0.00    +0.040 C 
ENDBRANCH   1   4
BRANCH   1  11
ATOM     11  C   LIG    1        1.455  -2.521  -2.524  0.00  0.00    +0.240 C 
BRANCH  11  12
ATOM     12  C   LIG    1        0.739  -2.027  -1.265  0.00  0.00    +0.030 C 
BRANCH  12  13
ATOM     13  C   LIG    1        0.718  -0.497  -1.257  0.00  0.00    +0.020 C 
BRANCH  13  15
ATOM     14  C   LIG    1       -0.019   1.526   0.010  0.00  0.00    +0.020 C 
ATOM     15  C   LIG    1        0.002  -0.004   0.002  0.00  0.00    +0.010 C 
ENDBRANCH  13  15
ENDBRANCH  12  13
ENDBRANCH  11  12
ENDBRANCH   1  11
TORSDOF 5
ENDMDL
MODEL      682
REMARK  Name = ZINC001201754114
REMARK                            x       y       z     vdW  Elec       q    Type
REMARK                         _______ _______ _______ _____ _____    ______ ____
ROOT
ATOM      1  N   LIG    1        2.163  -4.524  -3.741  0.00  0.00    -0.380 N 
ATOM      2  C   LIG    1        3.574  -4.117  -3.693  0.00  0.00    +0.310 C 
ATOM      3  H   LIG    1        1.725  -4.123  -4.556  0.00  0.00    +0.430 HD
ENDROOT
BRANCH   1   4
ATOM      4  C   LIG    1        1.476  -4.051  -2.532  0.00  0.00    +0.250 C 
BRANCH   4   5
ATOM      5  C   LIG    1        1.455  -2.521  -2.524  0.00  0.00    +0.030 C 
BRANCH   5   6
ATOM      6  C   LIG    1        0.739  -2.027  -1.265  0.00  0.00    +0.020 C 
BRANCH   6   7
ATOM      7  C   LIG    1        0.718  -0.497  -1.257  0.00  0.00    +0.020 C 
BRANCH   7   9
ATOM      8  C   LIG    1       -0.019   1.526   0.010  0.00  0.00    +0.020 C 
ATOM      9  C   LIG    1        0.002  -0.004   0.002  0.00  0.00    -0.010 C 
ENDBRANCH   7   9
ENDBRANCH   6   7
ENDBRANCH   5   6
ENDBRANCH   4   5
ENDBRANCH   1   4
BRANCH   1  10
ATOM     10  C   LIG    1        2.079  -5.989  -3.810  0.00  0.00    +0.290 C 
BRANCH  10  11
ATOM     11  C   LIG    1        2.685  -6.473  -5.129  0.00  0.00    -0.080 C 
ATOM     12  C   LIG    1        1.754  -7.177  -6.118  0.00  0.00    +0.060 C 
ATOM     13  C   LIG    1        2.797  -7.984  -5.342  0.00  0.00    -0.090 C 
ATOM     14  C   LIG    1        2.295  -8.896  -4.220  0.00  0.00    +0.070 C 
ATOM     15  C   LIG    1        4.011  -8.500  -6.118  0.00  0.00    +0.070 C 
ENDBRANCH  10  11
ENDBRANCH   1  10
TORSDOF 7
ENDMDL
MODEL      683
REMARK  Name = ZINC001201742977
REMARK                            x       y       z     vdW  Elec       q    Type
REMARK                         _______ _______ _______ _____ _____    ______ ____
ROOT
ATOM      1  N   LIG    1        2.163  -4.524  -3.741  0.00  0.00    -0.400 N 
ATOM      2  C   LIG    1        3.630  -4.605  -3.590  0.00  0.00    +0.290 C 
ATOM      3  C   LIG    1        3.591  -5.904  -4.409  0.00  0.00    +0.100 C 
ATOM      4  C   LIG    1        2.156  -5.985  -3.883  0.00  0.00    +0.050 C 
ATOM      5  C   LIG    1        1.991  -6.764  -2.568  0.00  0.00    +0.070 C 
ATOM      6  C   LIG    1        0.537  -7.298  -2.628  0.00  0.00    +0.030 C 
ATOM      7  C   LIG    1        0.364  -7.657  -4.125  0.00  0.00    +0.030 C 
ATOM      8  C   LIG    1        1.128  -6.543  -4.873  0.00  0.00    +0.060 C 
ATOM      9  H   LIG    1        1.872  -4.038  -4.576  0.00  0.00    +0.430 HD
ENDROOT
BRANCH   1  10
ATOM     10  C   LIG    1        1.476  -4.051  -2.532  0.00  0.00    +0.250 C 
BRANCH  10  11
ATOM     11  C   LIG    1        1.455  -2.521  -2.524  0.00  0.00    +0.020 C 
BRANCH  11  12
ATOM     12  C   LIG    1        0.739  -2.027  -1.265  0.00  0.00    +0.020 C 
BRANCH  12  13
ATOM     13  C   LIG    1        0.718  -0.497  -1.257  0.00  0.00    +0.020 C 
BRANCH  13  15
ATOM     14  C   LIG    1       -0.019   1.526   0.010  0.00  0.00    +0.020 C 
ATOM     15  C   LIG    1        0.002  -0.004   0.002  0.00  0.00    -0.010 C 
ENDBRANCH  13  15
ENDBRANCH  12  13
ENDBRANCH  11  12
ENDBRANCH  10  11
ENDBRANCH   1  10
TORSDOF 5
ENDMDL
MODEL      684
REMARK  Name = ZINC001201753966
REMARK                            x       y       z     vdW  Elec       q    Type
REMARK                         _______ _______ _______ _____ _____    ______ ____
ROOT
ATOM      1  N   LIG    1        2.163  -4.524  -3.741  0.00  0.00    -0.350 N 
ATOM      2  C   LIG    1        3.575  -4.118  -3.693  0.00  0.00    +0.250 C 
ATOM      3  C   LIG    1        4.298  -4.618  -4.945  0.00  0.00    +0.060 C 
ATOM      4  C   LIG    1        4.278  -6.149  -4.972  0.00  0.00    +0.040 C 
ATOM      5  C   LIG    1        2.822  -6.629  -4.988  0.00  0.00    +0.110 C 
ATOM      6  C   LIG    1        2.080  -5.990  -3.810  0.00  0.00    -0.050 C 
ATOM      7  C   LIG    1        2.049  -6.761  -2.490  0.00  0.00    +0.100 C 
ATOM      8  C   LIG    1        0.784  -6.652  -3.345  0.00  0.00    +0.100 C 
ATOM      9  H   LIG    1        1.725  -4.124  -4.557  0.00  0.00    +0.420 HD
ENDROOT
BRANCH   1  10
ATOM     10  C   LIG    1        1.476  -4.051  -2.532  0.00  0.00    +0.240 C 
BRANCH  10  11
ATOM     11  C   LIG    1        1.455  -2.521  -2.524  0.00  0.00    +0.030 C 
BRANCH  11  12
ATOM     12  C   LIG    1        0.739  -2.027  -1.265  0.00  0.00    +0.020 C 
BRANCH  12  13
ATOM     13  C   LIG    1        0.718  -0.497  -1.257  0.00  0.00    +0.020 C 
BRANCH  13  15
ATOM     14  C   LIG    1       -0.019   1.526   0.010  0.00  0.00    +0.020 C 
ATOM     15  C   LIG    1        0.002  -0.004   0.002  0.00  0.00    -0.010 C 
ENDBRANCH  13  15
ENDBRANCH  12  13
ENDBRANCH  11  12
ENDBRANCH  10  11
ENDBRANCH   1  10
TORSDOF 5
ENDMDL
MODEL      685
REMARK  Name = ZINC000674767094
REMARK                            x       y       z     vdW  Elec       q    Type
REMARK                         _______ _______ _______ _____ _____    ______ ____
ROOT
ATOM      1  N   LIG    1        1.640  -2.544   2.402  0.00  0.00    -0.390 N 
ATOM      2  H   LIG    1        2.517  -2.114   2.654  0.00  0.00    +0.420 HD
ENDROOT
BRANCH   1   3
ATOM      3  C   LIG    1        0.612  -2.174   3.385  0.00  0.00    +0.240 C 
ATOM      4  C   LIG    1        1.100  -2.528   4.791  0.00  0.00    +0.080 C 
ENDBRANCH   1   3
BRANCH   1   5
ATOM      5  C   LIG    1        1.232  -2.081   1.069  0.00  0.00    +0.240 C 
BRANCH   5   6
ATOM      6  C   LIG    1        1.188  -0.551   1.052  0.00  0.00    +0.030 C 
BRANCH   6   8
ATOM      7  C   LIG    1        0.720   1.460  -0.354  0.00  0.00    +0.030 C 
ATOM      8  C   LIG    1        0.763  -0.069  -0.337  0.00  0.00    +0.020 C 
ENDBRANCH   6   8
ENDBRANCH   5   6
ENDBRANCH   1   5
BRANCH   1   9
ATOM      9  C   LIG    1        1.797  -4.005   2.385  0.00  0.00    +0.250 C 
BRANCH   9  10
ATOM     10  C   LIG    1        2.955  -4.382   1.459  0.00  0.00    -0.020 C 
ATOM     11  C   LIG    1        4.267  -3.850   2.040  0.00  0.00    +0.000 C 
ATOM     12  C   LIG    1        5.425  -4.227   1.113  0.00  0.00    +0.020 C 
ATOM     13  C   LIG    1        5.503  -5.750   0.989  0.00  0.00    +0.010 C 
ATOM     14  C   LIG    1        4.191  -6.282   0.409  0.00  0.00    +0.020 C 
ATOM     15  C   LIG    1        3.033  -5.905   1.335  0.00  0.00    +0.030 C 
ENDBRANCH   9  10
ENDBRANCH   1   9
TORSDOF 6
ENDMDL
MODEL      686
REMARK  Name = ZINC001201975969
REMARK                            x       y       z     vdW  Elec       q    Type
REMARK                         _______ _______ _______ _____ _____    ______ ____
ROOT
ATOM      1  C   LIG    1        2.158  -5.024   1.373  0.00  0.00    -0.010 C 
ATOM      2  C   LIG    1        3.149  -5.650   0.390  0.00  0.00    +0.020 C 
ENDROOT
BRANCH   1   3
ATOM      3  C   LIG    1        1.937  -3.555   1.007  0.00  0.00    +0.030 C 
BRANCH   3   4
ATOM      4  C   LIG    1        1.260  -3.466  -0.362  0.00  0.00    +0.250 C 
BRANCH   4   5
ATOM      5  N   LIG    1        1.047  -2.056  -0.713  0.00  0.00    -0.390 N 
ATOM      6  C   LIG    1        0.096  -1.454   0.230  0.00  0.00    +0.300 C 
ATOM      7  H   LIG    1        1.926  -1.562  -0.666  0.00  0.00    +0.420 HD
BRANCH   5   9
ATOM      8  C   LIG    1        0.404  -0.497  -2.489  0.00  0.00    +0.080 C 
ATOM      9  C   LIG    1        0.508  -1.966  -2.077  0.00  0.00    +0.250 C 
ENDBRANCH   5   9
ENDBRANCH   4   5
ENDBRANCH   3   4
ENDBRANCH   1   3
BRANCH   1  10
ATOM     10  C   LIG    1        2.720  -5.117   2.793  0.00  0.00    +0.030 C 
BRANCH  10  11
ATOM     11  C   LIG    1        2.824  -6.587   3.205  0.00  0.00    +0.040 C 
BRANCH  11  12
ATOM     12  C   LIG    1        3.377  -6.678   4.604  0.00  0.00    -0.070 C 
ATOM     13  C   LIG    1        2.686  -7.273   5.544  0.00  0.00    -0.120 C 
ATOM     14  C   LIG    1        3.292  -7.482   6.907  0.00  0.00    +0.080 C 
ATOM     15  C   LIG    1        1.283  -7.747   5.262  0.00  0.00    +0.070 C 
ENDBRANCH  11  12
ENDBRANCH  10  11
ENDBRANCH   1  10
TORSDOF 7
ENDMDL
MODEL      687
REMARK  Name = ZINC000591378167
REMARK                            x       y       z     vdW  Elec       q    Type
REMARK                         _______ _______ _______ _____ _____    ______ ____
ROOT
ATOM      1  N   LIG    1        0.669  -0.610   3.687  0.00  0.00    -0.390 N 
ATOM      2  C   LIG    1        1.954   0.107   3.828  0.00  0.00    +0.250 C 
ATOM      3  C   LIG    1        1.656   1.263   4.815  0.00  0.00    +0.080 C 
ATOM      4  C   LIG    1        0.671   0.585   5.803  0.00  0.00    +0.080 C 
ATOM      5  C   LIG    1       -0.143  -0.352   4.890  0.00  0.00    +0.170 C 
ATOM      6  H   LIG    1        0.841  -1.601   3.600  0.00  0.00    +0.420 HD
ENDROOT
BRANCH   5   7
ATOM      7  C   LIG    1       -0.429  -1.668   5.617  0.00  0.00    -0.080 C 
ATOM      8  C   LIG    1        0.892  -2.327   6.017  0.00  0.00    +0.040 C 
ATOM      9  C   LIG    1       -1.206  -2.604   4.690  0.00  0.00    +0.050 C 
ATOM     10  C   LIG    1       -1.260  -1.387   6.871  0.00  0.00    +0.070 C 
ENDBRANCH   5   7
BRANCH   1  11
ATOM     11  C   LIG    1       -0.042  -0.124   2.497  0.00  0.00    +0.250 C 
BRANCH  11  12
ATOM     12  C   LIG    1        0.742  -0.511   1.242  0.00  0.00    +0.040 C 
BRANCH  12  14
ATOM     13  C   LIG    1       -0.019   1.526   0.010  0.00  0.00    +0.020 C 
ATOM     14  C   LIG    1        0.002  -0.004   0.002  0.00  0.00    -0.010 C 
ATOM     15  C   LIG    1        0.718  -0.497  -1.257  0.00  0.00    +0.040 C 
ENDBRANCH  12  14
ENDBRANCH  11  12
ENDBRANCH   1  11
TORSDOF 4
ENDMDL
MODEL      688
REMARK  Name = ZINC000591378168
REMARK                            x       y       z     vdW  Elec       q    Type
REMARK                         _______ _______ _______ _____ _____    ______ ____
ROOT
ATOM      1  N   LIG    1        1.034  -0.009   4.859  0.00  0.00    -0.380 N 
ATOM      2  C   LIG    1        1.946   0.914   5.569  0.00  0.00    +0.250 C 
ATOM      3  C   LIG    1        1.346   1.046   6.992  0.00  0.00    +0.080 C 
ATOM      4  C   LIG    1       -0.176   1.030   6.693  0.00  0.00    +0.070 C 
ATOM      5  C   LIG    1       -0.287   0.048   5.511  0.00  0.00    +0.170 C 
ATOM      6  H   LIG    1        1.397  -0.949   4.908  0.00  0.00    +0.420 HD
ENDROOT
BRANCH   5   7
ATOM      7  C   LIG    1       -1.340   0.544   4.519  0.00  0.00    -0.070 C 
ATOM      8  C   LIG    1       -2.535   1.114   5.286  0.00  0.00    +0.070 C 
ATOM      9  C   LIG    1       -1.806  -0.621   3.643  0.00  0.00    +0.050 C 
ATOM     10  C   LIG    1       -0.734   1.636   3.635  0.00  0.00    +0.040 C 
ENDBRANCH   5   7
BRANCH   1  11
ATOM     11  C   LIG    1        0.911   0.402   3.455  0.00  0.00    +0.240 C 
BRANCH  11  12
ATOM     12  C   LIG    1        2.180   0.011   2.695  0.00  0.00    +0.010 C 
BRANCH  12  14
ATOM     13  C   LIG    1        1.985   1.966   1.151  0.00  0.00    +0.020 C 
ATOM     14  C   LIG    1        2.051   0.439   1.232  0.00  0.00    -0.010 C 
ATOM     15  C   LIG    1        3.264  -0.061   0.445  0.00  0.00    +0.040 C 
ENDBRANCH  12  14
ENDBRANCH  11  12
ENDBRANCH   1  11
TORSDOF 4
ENDMDL
MODEL      689
REMARK  Name = ZINC001201975968
REMARK                            x       y       z     vdW  Elec       q    Type
REMARK                         _______ _______ _______ _____ _____    ______ ____
ROOT
ATOM      1  C   LIG    1        2.760  -3.075   2.605  0.00  0.00    -0.010 C 
ATOM      2  C   LIG    1        1.277  -3.435   2.494  0.00  0.00    +0.020 C 
ENDROOT
BRANCH   1   3
ATOM      3  C   LIG    1        2.898  -1.602   2.996  0.00  0.00    +0.030 C 
BRANCH   3   4
ATOM      4  C   LIG    1        2.352  -0.722   1.871  0.00  0.00    +0.250 C 
BRANCH   4   5
ATOM      5  N   LIG    1        2.485   0.692   2.246  0.00  0.00    -0.390 N 
ATOM      6  C   LIG    1        1.631   0.973   3.409  0.00  0.00    +0.300 C 
ATOM      7  H   LIG    1        3.446   0.889   2.480  0.00  0.00    +0.420 HD
BRANCH   5   9
ATOM      8  C   LIG    1        2.327   3.008   1.464  0.00  0.00    +0.080 C 
ATOM      9  C   LIG    1        2.071   1.539   1.119  0.00  0.00    +0.250 C 
ENDBRANCH   5   9
ENDBRANCH   4   5
ENDBRANCH   3   4
ENDBRANCH   1   3
BRANCH   1  10
ATOM     10  C   LIG    1        3.418  -3.950   3.673  0.00  0.00    +0.030 C 
BRANCH  10  11
ATOM     11  C   LIG    1        3.390  -5.412   3.223  0.00  0.00    +0.040 C 
BRANCH  11  12
ATOM     12  C   LIG    1        4.039  -6.274   4.275  0.00  0.00    -0.070 C 
ATOM     13  C   LIG    1        5.016  -7.083   3.948  0.00  0.00    -0.120 C 
ATOM     14  C   LIG    1        5.759  -7.840   5.019  0.00  0.00    +0.080 C 
ATOM     15  C   LIG    1        5.399  -7.256   2.500  0.00  0.00    +0.090 C 
ENDBRANCH  11  12
ENDBRANCH  10  11
ENDBRANCH   1  10
TORSDOF 7
ENDMDL
MODEL      690
REMARK  Name = ZINC001202120085
REMARK                            x       y       z     vdW  Elec       q    Type
REMARK                         _______ _______ _______ _____ _____    ______ ____
ROOT
ATOM      1  N   LIG    1       -1.542  -2.232   0.071  0.00  0.00    -0.380 N 
ATOM      2  H   LIG    1       -0.865  -2.609  -0.575  0.00  0.00    +0.420 HD
ENDROOT
BRANCH   1   3
ATOM      3  C   LIG    1       -2.845  -2.874  -0.154  0.00  0.00    +0.160 C 
ATOM      4  C   LIG    1       -3.838  -2.399   0.908  0.00  0.00    +0.080 C 
BRANCH   3   5
ATOM      5  C   LIG    1       -2.687  -4.393  -0.062  0.00  0.00    +0.050 C 
ATOM      6  C   LIG    1       -1.775  -4.881  -1.189  0.00  0.00    +0.030 C 
ENDBRANCH   3   5
ENDBRANCH   1   3
BRANCH   1   7
ATOM      7  C   LIG    1       -1.667  -0.784  -0.140  0.00  0.00    +0.240 C 
BRANCH   7   9
ATOM      8  C   LIG    1       -2.248   0.993  -1.798  0.00  0.00    +0.060 C 
ATOM      9  C   LIG    1       -2.086  -0.514  -1.587  0.00  0.00    +0.010 C 
ENDBRANCH   7   9
ENDBRANCH   1   7
BRANCH   1  10
ATOM     10  C   LIG    1       -1.101  -2.490   1.449  0.00  0.00    +0.250 C 
BRANCH  10  11
ATOM     11  C   LIG    1        0.332  -1.986   1.627  0.00  0.00    -0.030 C 
ATOM     12  C   LIG    1        0.337  -0.478   1.979  0.00  0.00    +0.020 C 
ATOM     13  C   LIG    1        1.699  -0.298   2.696  0.00  0.00    +0.020 C 
ATOM     14  C   LIG    1        1.862  -1.588   3.526  0.00  0.00    +0.010 C 
ATOM     15  C   LIG    1        0.994  -2.661   2.847  0.00  0.00    +0.030 C 
ENDBRANCH  10  11
ENDBRANCH   1  10
TORSDOF 6
ENDMDL
MODEL      691
REMARK  Name = ZINC000674861086
REMARK                            x       y       z     vdW  Elec       q    Type
REMARK                         _______ _______ _______ _____ _____    ______ ____
ROOT
ATOM      1  N   LIG    1        1.184  -2.576   2.497  0.00  0.00    -0.360 N 
ATOM      2  H   LIG    1        0.638  -2.228   3.271  0.00  0.00    +0.420 HD
ENDROOT
BRANCH   1   3
ATOM      3  C   LIG    1        2.587  -2.176   2.669  0.00  0.00    +0.090 C 
ATOM      4  C   LIG    1        2.919  -1.248   3.839  0.00  0.00    +0.100 C 
ATOM      5  C   LIG    1        3.333  -2.720   3.889  0.00  0.00    +0.090 C 
ENDBRANCH   1   3
BRANCH   1   6
ATOM      6  C   LIG    1        1.095  -4.042   2.456  0.00  0.00    +0.170 C 
ATOM      7  C   LIG    1        1.816  -4.562   1.210  0.00  0.00    +0.090 C 
BRANCH   6   8
ATOM      8  C   LIG    1       -0.375  -4.463   2.407  0.00  0.00    -0.020 C 
ATOM      9  C   LIG    1       -1.119  -3.855   3.598  0.00  0.00    +0.030 C 
ATOM     10  C   LIG    1       -0.472  -5.988   2.470  0.00  0.00    +0.070 C 
ENDBRANCH   6   8
ENDBRANCH   1   6
BRANCH   1  11
ATOM     11  C   LIG    1        0.666  -2.019   1.241  0.00  0.00    +0.250 C 
BRANCH  11  12
ATOM     12  C   LIG    1        0.633  -0.492   1.336  0.00  0.00    -0.010 C 
ATOM     13  C   LIG    1        0.232   0.095  -0.019  0.00  0.00    +0.070 C 
BRANCH  12  15
ATOM     14  C   LIG    1       -0.329   1.449   2.580  0.00  0.00    +0.040 C 
ATOM     15  C   LIG    1       -0.385  -0.069   2.397  0.00  0.00    +0.000 C 
ENDBRANCH  12  15
ENDBRANCH  11  12
ENDBRANCH   1  11
TORSDOF 6
ENDMDL
MODEL      692
REMARK  Name = ZINC001202055545
REMARK                            x       y       z     vdW  Elec       q    Type
REMARK                         _______ _______ _______ _____ _____    ______ ____
ROOT
ATOM      1  N   LIG    1        1.475  -3.990  -2.532  0.00  0.00    -0.390 N 
ATOM      2  C   LIG    1        0.101  -4.497  -2.642  0.00  0.00    +0.300 C 
ATOM      3  H   LIG    1        1.890  -4.325  -1.676  0.00  0.00    +0.420 HD
ENDROOT
BRANCH   1   4
ATOM      4  C   LIG    1        1.455  -2.521  -2.524  0.00  0.00    +0.250 C 
BRANCH   4   5
ATOM      5  C   LIG    1        0.739  -2.027  -1.265  0.00  0.00    +0.030 C 
BRANCH   5   6
ATOM      6  C   LIG    1        0.718  -0.497  -1.257  0.00  0.00    +0.020 C 
BRANCH   6   8
ATOM      7  C   LIG    1       -0.019   1.526   0.010  0.00  0.00    +0.020 C 
ATOM      8  C   LIG    1        0.002  -0.004   0.002  0.00  0.00    +0.010 C 
ENDBRANCH   6   8
ENDBRANCH   5   6
ENDBRANCH   4   5
ENDBRANCH   1   4
BRANCH   1   9
ATOM      9  C   LIG    1        2.265  -4.462  -3.677  0.00  0.00    +0.240 C 
BRANCH   9  10
ATOM     10  C   LIG    1        2.390  -5.986  -3.615  0.00  0.00    +0.040 C 
BRANCH  10  11
ATOM     11  C   LIG    1        3.213  -6.478  -4.808  0.00  0.00    -0.060 C 
ATOM     12  C   LIG    1        2.517  -6.076  -6.109  0.00  0.00    +0.030 C 
ATOM     13  C   LIG    1        3.339  -8.002  -4.747  0.00  0.00    +0.040 C 
ATOM     14  C   LIG    1        4.607  -5.849  -4.760  0.00  0.00    +0.030 C 
ENDBRANCH  10  11
ENDBRANCH   9  10
ENDBRANCH   1   9
TORSDOF 7
ENDMDL
MODEL      693
REMARK  Name = ZINC001202087187
REMARK                            x       y       z     vdW  Elec       q    Type
REMARK                         _______ _______ _______ _____ _____    ______ ____
ROOT
ATOM      1  C   LIG    1       -0.019   1.526   0.010  0.00  0.00    +0.050 C 
ATOM      2  C   LIG    1        0.002  -0.004   0.002  0.00  0.00    -0.010 C 
ATOM      3  C   LIG    1       -1.434  -0.536   0.017  0.00  0.00    +0.060 C 
ATOM      4  C   LIG    1       -1.405  -2.064   0.089  0.00  0.00    +0.250 C 
ATOM      5  N   LIG    1       -0.713  -2.487   1.312  0.00  0.00    -0.380 N 
ATOM      6  C   LIG    1        0.685  -2.042   1.272  0.00  0.00    +0.160 C 
ATOM      7  C   LIG    1        1.419  -2.555   2.512  0.00  0.00    +0.090 C 
ATOM      8  H   LIG    1       -1.171  -2.082   2.114  0.00  0.00    +0.420 HD
ATOM      9  C   LIG    1        0.739  -0.513   1.244  0.00  0.00    +0.060 C 
ENDROOT
BRANCH   5  10
ATOM     10  C   LIG    1       -0.755  -3.952   1.414  0.00  0.00    +0.250 C 
BRANCH  10  11
ATOM     11  C   LIG    1       -2.204  -4.410   1.590  0.00  0.00    +0.040 C 
BRANCH  11  12
ATOM     12  C   LIG    1       -2.248  -5.935   1.697  0.00  0.00    -0.060 C 
ATOM     13  C   LIG    1       -1.669  -6.553   0.423  0.00  0.00    +0.030 C 
ATOM     14  C   LIG    1       -3.697  -6.393   1.873  0.00  0.00    +0.040 C 
ATOM     15  C   LIG    1       -1.421  -6.386   2.903  0.00  0.00    +0.030 C 
ENDBRANCH  11  12
ENDBRANCH  10  11
ENDBRANCH   5  10
TORSDOF 3
ENDMDL
MODEL      694
REMARK  Name = ZINC000674861085
REMARK                            x       y       z     vdW  Elec       q    Type
REMARK                         _______ _______ _______ _____ _____    ______ ____
ROOT
ATOM      1  N   LIG    1        1.774  -2.503   2.239  0.00  0.00    -0.350 N 
ATOM      2  H   LIG    1        1.320  -2.166   3.074  0.00  0.00    +0.420 HD
ENDROOT
BRANCH   1   3
ATOM      3  C   LIG    1        3.079  -1.844   2.091  0.00  0.00    +0.090 C 
ATOM      4  C   LIG    1        3.321  -1.033   0.817  0.00  0.00    +0.100 C 
ATOM      5  C   LIG    1        3.109  -0.315   2.151  0.00  0.00    +0.090 C 
ENDBRANCH   1   3
BRANCH   1   6
ATOM      6  C   LIG    1        1.968  -3.955   2.338  0.00  0.00    +0.170 C 
ATOM      7  C   LIG    1        2.754  -4.279   3.610  0.00  0.00    +0.080 C 
BRANCH   6   8
ATOM      8  C   LIG    1        0.605  -4.649   2.390  0.00  0.00    -0.020 C 
ATOM      9  C   LIG    1       -0.173  -4.153   3.611  0.00  0.00    +0.040 C 
ATOM     10  C   LIG    1        0.806  -6.162   2.494  0.00  0.00    +0.070 C 
ENDBRANCH   6   8
ENDBRANCH   1   6
BRANCH   1  11
ATOM     11  C   LIG    1        0.938  -2.199   1.070  0.00  0.00    +0.260 C 
BRANCH  11  12
ATOM     12  C   LIG    1        0.490  -0.737   1.129  0.00  0.00    -0.030 C 
ATOM     13  C   LIG    1       -0.305  -0.499   2.414  0.00  0.00    +0.050 C 
BRANCH  12  15
ATOM     14  C   LIG    1       -0.736   1.067  -0.090  0.00  0.00    +0.030 C 
ATOM     15  C   LIG    1       -0.391  -0.424  -0.082  0.00  0.00    +0.020 C 
ENDBRANCH  12  15
ENDBRANCH  11  12
ENDBRANCH   1  11
TORSDOF 6
ENDMDL
MODEL      695
REMARK  Name = ZINC001202079129
REMARK                            x       y       z     vdW  Elec       q    Type
REMARK                         _______ _______ _______ _____ _____    ______ ____
ROOT
ATOM      1  C   LIG    1       -0.019   1.526   0.010  0.00  0.00    +0.070 C 
ATOM      2  C   LIG    1        0.002  -0.004   0.002  0.00  0.00    +0.160 C 
ATOM      3  C   LIG    1        0.682  -0.480  -1.294  0.00  0.00    +0.060 C 
ATOM      4  C   LIG    1        1.112  -1.922  -1.252  0.00  0.00    +0.020 C 
ATOM      5  C   LIG    1        2.573  -1.994  -0.741  0.00  0.00    +0.030 C 
ATOM      6  C   LIG    1        2.634  -1.775   0.699  0.00  0.00    +0.050 C 
ATOM      7  C   LIG    1        2.113  -0.392   1.123  0.00  0.00    +0.240 C 
ATOM      8  N   LIG    1        0.679  -0.475   1.229  0.00  0.00    -0.370 N 
ATOM      9  H   LIG    1        0.417  -1.434   1.400  0.00  0.00    +0.420 HD
ENDROOT
BRANCH   8  10
ATOM     10  C   LIG    1        0.235   0.350   2.361  0.00  0.00    +0.240 C 
BRANCH  10  11
ATOM     11  C   LIG    1        0.779  -0.239   3.665  0.00  0.00    +0.040 C 
BRANCH  11  12
ATOM     12  C   LIG    1        0.317   0.620   4.844  0.00  0.00    -0.060 C 
ATOM     13  C   LIG    1        0.841   2.047   4.671  0.00  0.00    +0.030 C 
ATOM     14  C   LIG    1        0.861   0.031   6.147  0.00  0.00    +0.040 C 
ATOM     15  C   LIG    1       -1.212   0.640   4.892  0.00  0.00    +0.030 C 
ENDBRANCH  11  12
ENDBRANCH  10  11
ENDBRANCH   8  10
TORSDOF 3
ENDMDL
MODEL      696
REMARK  Name = ZINC000674861094
REMARK                            x       y       z     vdW  Elec       q    Type
REMARK                         _______ _______ _______ _____ _____    ______ ____
ROOT
ATOM      1  N   LIG    1        1.860  -3.059   1.820  0.00  0.00    -0.360 N 
ATOM      2  H   LIG    1        1.713  -2.667   2.738  0.00  0.00    +0.420 HD
ENDROOT
BRANCH   1   3
ATOM      3  C   LIG    1        3.275  -2.919   1.449  0.00  0.00    +0.090 C 
ATOM      4  C   LIG    1        4.146  -2.008   2.317  0.00  0.00    +0.100 C 
ATOM      5  C   LIG    1        4.316  -3.527   2.391  0.00  0.00    +0.100 C 
ENDBRANCH   1   3
BRANCH   1   6
ATOM      6  C   LIG    1        1.495  -4.482   1.831  0.00  0.00    +0.170 C 
ATOM      7  C   LIG    1        1.579  -5.041   0.410  0.00  0.00    +0.090 C 
BRANCH   6   8
ATOM      8  C   LIG    1        0.067  -4.638   2.358  0.00  0.00    -0.020 C 
ATOM      9  C   LIG    1       -0.021  -4.063   3.772  0.00  0.00    +0.040 C 
ATOM     10  C   LIG    1       -0.306  -6.122   2.386  0.00  0.00    +0.070 C 
ENDBRANCH   6   8
ENDBRANCH   1   6
BRANCH   1  11
ATOM     11  C   LIG    1        1.025  -2.347   0.844  0.00  0.00    +0.250 C 
BRANCH  11  12
ATOM     12  C   LIG    1        1.317  -0.847   0.921  0.00  0.00    -0.010 C 
ATOM     13  C   LIG    1        0.886  -0.313   2.288  0.00  0.00    +0.040 C 
BRANCH  12  15
ATOM     14  C   LIG    1        0.928   1.361  -0.182  0.00  0.00    +0.030 C 
ATOM     15  C   LIG    1        0.541  -0.119  -0.179  0.00  0.00    +0.020 C 
ENDBRANCH  12  15
ENDBRANCH  11  12
ENDBRANCH   1  11
TORSDOF 6
ENDMDL
MODEL      697
REMARK  Name = ZINC001202055215
REMARK                            x       y       z     vdW  Elec       q    Type
REMARK                         _______ _______ _______ _____ _____    ______ ____
ROOT
ATOM      1  N   LIG    1       -1.564  -2.030   0.107  0.00  0.00    -0.380 N 
ATOM      2  H   LIG    1       -0.912  -2.334  -0.602  0.00  0.00    +0.420 HD
ENDROOT
BRANCH   1   3
ATOM      3  C   LIG    1       -2.901  -2.553  -0.201  0.00  0.00    +0.160 C 
ATOM      4  C   LIG    1       -3.856  -2.220   0.947  0.00  0.00    +0.090 C 
BRANCH   3   5
ATOM      5  C   LIG    1       -2.827  -4.071  -0.379  0.00  0.00    +0.050 C 
ATOM      6  C   LIG    1       -1.940  -4.401  -1.581  0.00  0.00    +0.020 C 
ENDBRANCH   3   5
ENDBRANCH   1   3
BRANCH   1   7
ATOM      7  C   LIG    1       -1.606  -0.562   0.136  0.00  0.00    +0.240 C 
BRANCH   7   9
ATOM      8  C   LIG    1       -2.042   1.491  -1.220  0.00  0.00    +0.060 C 
ATOM      9  C   LIG    1       -1.912  -0.033  -1.267  0.00  0.00    +0.020 C 
ENDBRANCH   7   9
ENDBRANCH   1   7
BRANCH   1  10
ATOM     10  C   LIG    1       -1.131  -2.533   1.417  0.00  0.00    +0.230 C 
BRANCH  10  11
ATOM     11  C   LIG    1        0.318  -2.114   1.672  0.00  0.00    +0.040 C 
BRANCH  11  12
ATOM     12  C   LIG    1        0.811  -2.747   2.975  0.00  0.00    -0.060 C 
ATOM     13  C   LIG    1       -0.068  -2.275   4.135  0.00  0.00    +0.030 C 
ATOM     14  C   LIG    1        2.260  -2.327   3.230  0.00  0.00    +0.040 C 
ATOM     15  C   LIG    1        0.733  -4.270   2.863  0.00  0.00    +0.030 C 
ENDBRANCH  11  12
ENDBRANCH  10  11
ENDBRANCH   1  10
TORSDOF 7
ENDMDL
MODEL      698
REMARK  Name = ZINC000674861091
REMARK                            x       y       z     vdW  Elec       q    Type
REMARK                         _______ _______ _______ _____ _____    ______ ____
ROOT
ATOM      1  N   LIG    1        1.068  -2.636   2.557  0.00  0.00    -0.360 N 
ATOM      2  H   LIG    1        0.571  -2.327   3.379  0.00  0.00    +0.420 HD
ENDROOT
BRANCH   1   3
ATOM      3  C   LIG    1        2.416  -2.052   2.553  0.00  0.00    +0.090 C 
ATOM      4  C   LIG    1        2.789  -1.146   1.378  0.00  0.00    +0.090 C 
ATOM      5  C   LIG    1        2.532  -0.540   2.759  0.00  0.00    +0.090 C 
ENDBRANCH   1   3
BRANCH   1   6
ATOM      6  C   LIG    1        1.169  -4.102   2.568  0.00  0.00    +0.170 C 
ATOM      7  C   LIG    1        1.864  -4.555   3.854  0.00  0.00    +0.080 C 
BRANCH   6   8
ATOM      8  C   LIG    1       -0.233  -4.710   2.503  0.00  0.00    -0.020 C 
ATOM      9  C   LIG    1       -1.046  -4.247   3.713  0.00  0.00    +0.040 C 
ATOM     10  C   LIG    1       -0.127  -6.237   2.514  0.00  0.00    +0.070 C 
ENDBRANCH   6   8
ENDBRANCH   1   6
BRANCH   1  11
ATOM     11  C   LIG    1        0.343  -2.204   1.355  0.00  0.00    +0.250 C 
BRANCH  11  12
ATOM     12  C   LIG    1        0.039  -0.708   1.452  0.00  0.00    -0.030 C 
ATOM     13  C   LIG    1       -0.765  -0.270   0.227  0.00  0.00    +0.070 C 
BRANCH  12  15
ATOM     14  C   LIG    1       -0.970   1.074   2.883  0.00  0.00    +0.040 C 
ATOM     15  C   LIG    1       -0.773  -0.434   2.720  0.00  0.00    -0.010 C 
ENDBRANCH  12  15
ENDBRANCH  11  12
ENDBRANCH   1  11
TORSDOF 6
ENDMDL
MODEL      699
REMARK  Name = ZINC000674861209
REMARK                            x       y       z     vdW  Elec       q    Type
REMARK                         _______ _______ _______ _____ _____    ______ ____
ROOT
ATOM      1  N   LIG    1       -0.160  -0.156  -1.572  0.00  0.00    -0.350 N 
ATOM      2  H   LIG    1       -1.053  -0.509  -1.262  0.00  0.00    +0.420 HD
ENDROOT
BRANCH   1   3
ATOM      3  C   LIG    1       -0.226   1.307  -1.687  0.00  0.00    +0.100 C 
ATOM      4  C   LIG    1       -1.561   1.982  -1.365  0.00  0.00    +0.090 C 
ATOM      5  C   LIG    1       -0.385   2.111  -0.395  0.00  0.00    +0.090 C 
ENDBRANCH   1   3
BRANCH   1   6
ATOM      6  C   LIG    1        0.877  -0.524  -0.600  0.00  0.00    +0.160 C 
BRANCH   6   8
ATOM      7  C   LIG    1       -0.490  -2.383   0.357  0.00  0.00    +0.030 C 
ATOM      8  C   LIG    1        0.824  -2.032  -0.343  0.00  0.00    +0.050 C 
ENDBRANCH   6   8
BRANCH   6   9
ATOM      9  C   LIG    1        2.253  -0.150  -1.155  0.00  0.00    +0.050 C 
ATOM     10  C   LIG    1        2.420   1.370  -1.123  0.00  0.00    +0.030 C 
ENDBRANCH   6   9
ENDBRANCH   1   6
BRANCH   1  11
ATOM     11  C   LIG    1        0.168  -0.736  -2.882  0.00  0.00    +0.250 C 
BRANCH  11  12
ATOM     12  C   LIG    1       -1.002  -0.518  -3.843  0.00  0.00    -0.010 C 
ATOM     13  C   LIG    1       -2.221  -1.299  -3.348  0.00  0.00    +0.040 C 
BRANCH  12  14
ATOM     14  C   LIG    1       -0.614  -1.010  -5.239  0.00  0.00    +0.020 C 
ATOM     15  C   LIG    1       -1.734  -0.679  -6.226  0.00  0.00    +0.030 C 
ENDBRANCH  12  14
ENDBRANCH  11  12
ENDBRANCH   1  11
TORSDOF 7
ENDMDL
MODEL      700
REMARK  Name = ZINC001202120086
REMARK                            x       y       z     vdW  Elec       q    Type
REMARK                         _______ _______ _______ _____ _____    ______ ____
ROOT
ATOM      1  N   LIG    1       -1.083  -1.911  -0.101  0.00  0.00    -0.380 N 
ATOM      2  H   LIG    1       -0.460  -2.073  -0.877  0.00  0.00    +0.420 HD
ENDROOT
BRANCH   1   3
ATOM      3  C   LIG    1       -2.469  -2.147  -0.527  0.00  0.00    +0.160 C 
ATOM      4  C   LIG    1       -3.424  -1.757   0.603  0.00  0.00    +0.090 C 
BRANCH   3   5
ATOM      5  C   LIG    1       -2.773  -1.303  -1.766  0.00  0.00    +0.050 C 
ATOM      6  C   LIG    1       -1.885  -1.760  -2.925  0.00  0.00    +0.030 C 
ENDBRANCH   3   5
ENDBRANCH   1   3
BRANCH   1   7
ATOM      7  C   LIG    1       -0.943  -0.522   0.359  0.00  0.00    +0.240 C 
BRANCH   7   9
ATOM      8  C   LIG    1        0.697   1.253   0.995  0.00  0.00    +0.060 C 
ATOM      9  C   LIG    1        0.530  -0.229   0.651  0.00  0.00    +0.020 C 
ENDBRANCH   7   9
ENDBRANCH   1   7
BRANCH   1  10
ATOM     10  C   LIG    1       -0.746  -2.826   0.998  0.00  0.00    +0.250 C 
BRANCH  10  11
ATOM     11  C   LIG    1       -0.751  -4.266   0.481  0.00  0.00    -0.020 C 
ATOM     12  C   LIG    1        0.436  -4.499  -0.487  0.00  0.00    +0.010 C 
ATOM     13  C   LIG    1        0.640  -6.033  -0.415  0.00  0.00    +0.030 C 
ATOM     14  C   LIG    1        0.388  -6.379   1.067  0.00  0.00    +0.010 C 
ATOM     15  C   LIG    1       -0.496  -5.255   1.637  0.00  0.00    +0.040 C 
ENDBRANCH  10  11
ENDBRANCH   1  10
TORSDOF 6
ENDMDL
MODEL      701
REMARK  Name = ZINC000674861210
REMARK                            x       y       z     vdW  Elec       q    Type
REMARK                         _______ _______ _______ _____ _____    ______ ____
ROOT
ATOM      1  N   LIG    1       -0.832  -0.572  -2.837  0.00  0.00    -0.350 N 
ATOM      2  H   LIG    1       -1.488  -1.173  -2.360  0.00  0.00    +0.420 HD
ENDROOT
BRANCH   1   3
ATOM      3  C   LIG    1       -1.261   0.826  -2.702  0.00  0.00    +0.100 C 
ATOM      4  C   LIG    1       -2.531   1.101  -1.894  0.00  0.00    +0.090 C 
ATOM      5  C   LIG    1       -1.162   1.466  -1.316  0.00  0.00    +0.090 C 
ENDBRANCH   1   3
BRANCH   1   6
ATOM      6  C   LIG    1        0.501  -0.735  -2.242  0.00  0.00    +0.160 C 
BRANCH   6   8
ATOM      7  C   LIG    1       -0.026  -2.976  -1.272  0.00  0.00    +0.030 C 
ATOM      8  C   LIG    1        0.882  -2.216  -2.241  0.00  0.00    +0.050 C 
ENDBRANCH   6   8
BRANCH   6   9
ATOM      9  C   LIG    1        1.525   0.055  -3.060  0.00  0.00    +0.060 C 
ATOM     10  C   LIG    1        1.268   1.553  -2.889  0.00  0.00    +0.030 C 
ENDBRANCH   6   9
ENDBRANCH   1   6
BRANCH   1  11
ATOM     11  C   LIG    1       -0.781  -0.934  -4.259  0.00  0.00    +0.250 C 
BRANCH  11  12
ATOM     12  C   LIG    1       -2.202  -0.982  -4.825  0.00  0.00    -0.020 C 
ATOM     13  C   LIG    1       -2.731   0.444  -4.994  0.00  0.00    +0.030 C 
BRANCH  12  14
ATOM     14  C   LIG    1       -2.187  -1.684  -6.184  0.00  0.00    +0.020 C 
ATOM     15  C   LIG    1       -3.621  -1.843  -6.692  0.00  0.00    +0.030 C 
ENDBRANCH  12  14
ENDBRANCH  11  12
ENDBRANCH   1  11
TORSDOF 7
ENDMDL
MODEL      702
REMARK  Name = ZINC001202079127
REMARK                            x       y       z     vdW  Elec       q    Type
REMARK                         _______ _______ _______ _____ _____    ______ ____
ROOT
ATOM      1  C   LIG    1       -0.019   1.526   0.010  0.00  0.00    +0.070 C 
ATOM      2  C   LIG    1        0.002  -0.004   0.002  0.00  0.00    +0.150 C 
ATOM      3  C   LIG    1       -1.444  -0.528  -0.009  0.00  0.00    +0.060 C 
ATOM      4  C   LIG    1       -1.547  -2.001   0.432  0.00  0.00    +0.010 C 
ATOM      5  C   LIG    1       -0.465  -2.873  -0.150  0.00  0.00    +0.040 C 
ATOM      6  C   LIG    1        0.740  -2.906   0.820  0.00  0.00    +0.060 C 
ATOM      7  C   LIG    1        1.497  -1.659   0.760  0.00  0.00    +0.250 C 
ATOM      8  N   LIG    1        0.720  -0.474   1.165  0.00  0.00    -0.370 N 
ATOM      9  H   LIG    1        0.068  -0.725   1.893  0.00  0.00    +0.420 HD
ENDROOT
BRANCH   8  10
ATOM     10  C   LIG    1        1.627   0.575   1.649  0.00  0.00    +0.250 C 
BRANCH  10  11
ATOM     11  C   LIG    1        2.324   0.098   2.925  0.00  0.00    +0.040 C 
BRANCH  11  12
ATOM     12  C   LIG    1        3.268   1.191   3.429  0.00  0.00    -0.060 C 
ATOM     13  C   LIG    1        4.318   1.493   2.357  0.00  0.00    +0.030 C 
ATOM     14  C   LIG    1        3.966   0.715   4.704  0.00  0.00    +0.040 C 
ATOM     15  C   LIG    1        2.467   2.459   3.729  0.00  0.00    +0.030 C 
ENDBRANCH  11  12
ENDBRANCH  10  11
ENDBRANCH   8  10
TORSDOF 3
ENDMDL
MODEL      703
REMARK  Name = ZINC001202087184
REMARK                            x       y       z     vdW  Elec       q    Type
REMARK                         _______ _______ _______ _____ _____    ______ ____
ROOT
ATOM      1  C   LIG    1       -0.019   1.526   0.010  0.00  0.00    +0.050 C 
ATOM      2  C   LIG    1        0.002  -0.004   0.002  0.00  0.00    -0.020 C 
ATOM      3  C   LIG    1       -1.434  -0.536   0.017  0.00  0.00    +0.060 C 
ATOM      4  C   LIG    1       -1.405  -2.064   0.089  0.00  0.00    +0.240 C 
ATOM      5  N   LIG    1       -0.713  -2.487   1.312  0.00  0.00    -0.380 N 
ATOM      6  C   LIG    1        0.685  -2.042   1.272  0.00  0.00    +0.170 C 
ATOM      7  C   LIG    1        1.360  -2.596   0.015  0.00  0.00    +0.070 C 
ATOM      8  H   LIG    1       -1.171  -2.082   2.114  0.00  0.00    +0.420 HD
ATOM      9  C   LIG    1        0.739  -0.513   1.244  0.00  0.00    +0.060 C 
ENDROOT
BRANCH   5  10
ATOM     10  C   LIG    1       -0.755  -3.952   1.414  0.00  0.00    +0.240 C 
BRANCH  10  11
ATOM     11  C   LIG    1       -2.204  -4.410   1.590  0.00  0.00    +0.040 C 
BRANCH  11  12
ATOM     12  C   LIG    1       -2.248  -5.935   1.697  0.00  0.00    -0.060 C 
ATOM     13  C   LIG    1       -1.669  -6.553   0.423  0.00  0.00    +0.030 C 
ATOM     14  C   LIG    1       -3.697  -6.393   1.873  0.00  0.00    +0.040 C 
ATOM     15  C   LIG    1       -1.421  -6.386   2.903  0.00  0.00    +0.030 C 
ENDBRANCH  11  12
ENDBRANCH  10  11
ENDBRANCH   5  10
TORSDOF 3
ENDMDL
MODEL      704
REMARK  Name = ZINC001202055259
REMARK                            x       y       z     vdW  Elec       q    Type
REMARK                         _______ _______ _______ _____ _____    ______ ____
ROOT
ATOM      1  C   LIG    1       -0.602   1.149  -0.166  0.00  0.00    +0.070 C 
ATOM      2  C   LIG    1       -0.487  -0.370  -0.024  0.00  0.00    -0.010 C 
ATOM      3  C   LIG    1        0.082  -0.953  -1.292  0.00  0.00    +0.020 C 
ATOM      4  C   LIG    1       -0.477  -2.358  -1.596  0.00  0.00    +0.030 C 
ATOM      5  C   LIG    1       -0.580  -3.220  -0.324  0.00  0.00    +0.040 C 
ATOM      6  C   LIG    1        0.621  -3.032   0.568  0.00  0.00    +0.260 C 
ATOM      7  N   LIG    1        0.284  -2.024   1.592  0.00  0.00    -0.360 N 
ATOM      8  H   LIG    1       -0.677  -2.153   1.869  0.00  0.00    +0.420 HD
ATOM      9  C   LIG    1        0.450  -0.710   1.153  0.00  0.00    +0.220 C 
ENDROOT
BRANCH   7  10
ATOM     10  C   LIG    1        1.144  -2.239   2.764  0.00  0.00    +0.250 C 
BRANCH  10  11
ATOM     11  C   LIG    1        0.715  -1.295   3.890  0.00  0.00    +0.040 C 
BRANCH  11  12
ATOM     12  C   LIG    1        1.515  -1.614   5.155  0.00  0.00    -0.060 C 
ATOM     13  C   LIG    1        1.250  -3.062   5.574  0.00  0.00    +0.030 C 
ATOM     14  C   LIG    1        1.086  -0.671   6.281  0.00  0.00    +0.040 C 
ATOM     15  C   LIG    1        3.007  -1.430   4.875  0.00  0.00    +0.030 C 
ENDBRANCH  11  12
ENDBRANCH  10  11
ENDBRANCH   7  10
TORSDOF 3
ENDMDL
MODEL      705
REMARK  Name = ZINC001202055216
REMARK                            x       y       z     vdW  Elec       q    Type
REMARK                         _______ _______ _______ _____ _____    ______ ____
ROOT
ATOM      1  N   LIG    1       -1.345  -1.918  -0.355  0.00  0.00    -0.380 N 
ATOM      2  H   LIG    1       -0.808  -2.175  -1.170  0.00  0.00    +0.420 HD
ENDROOT
BRANCH   1   3
ATOM      3  C   LIG    1       -2.776  -2.091  -0.636  0.00  0.00    +0.160 C 
ATOM      4  C   LIG    1       -3.595  -1.557   0.541  0.00  0.00    +0.090 C 
BRANCH   3   5
ATOM      5  C   LIG    1       -3.143  -1.319  -1.905  0.00  0.00    +0.050 C 
ATOM      6  C   LIG    1       -2.396  -1.916  -3.099  0.00  0.00    +0.030 C 
ENDBRANCH   3   5
ENDBRANCH   1   3
BRANCH   1   7
ATOM      7  C   LIG    1       -1.078  -0.514  -0.016  0.00  0.00    +0.240 C 
BRANCH   7   9
ATOM      8  C   LIG    1        0.716   1.187   0.342  0.00  0.00    +0.060 C 
ATOM      9  C   LIG    1        0.430  -0.300   0.124  0.00  0.00    +0.020 C 
ENDBRANCH   7   9
ENDBRANCH   1   7
BRANCH   1  10
ATOM     10  C   LIG    1       -0.960  -2.775   0.774  0.00  0.00    +0.230 C 
BRANCH  10  11
ATOM     11  C   LIG    1       -1.102  -4.244   0.370  0.00  0.00    +0.040 C 
BRANCH  11  12
ATOM     12  C   LIG    1       -0.775  -5.137   1.569  0.00  0.00    -0.060 C 
ATOM     13  C   LIG    1        0.661  -4.870   2.026  0.00  0.00    +0.030 C 
ATOM     14  C   LIG    1       -0.917  -6.606   1.166  0.00  0.00    +0.040 C 
ATOM     15  C   LIG    1       -1.741  -4.827   2.715  0.00  0.00    +0.030 C 
ENDBRANCH  11  12
ENDBRANCH  10  11
ENDBRANCH   1  10
TORSDOF 7
ENDMDL
MODEL      706
REMARK  Name = ZINC001202096191
REMARK                            x       y       z     vdW  Elec       q    Type
REMARK                         _______ _______ _______ _____ _____    ______ ____
ROOT
ATOM      1  N   LIG    1       -0.165  -0.047  -2.568  0.00  0.00    -0.380 N 
ATOM      2  H   LIG    1       -1.100  -0.415  -2.478  0.00  0.00    +0.420 HD
ENDROOT
BRANCH   1   3
ATOM      3  C   LIG    1       -0.227   1.411  -2.739  0.00  0.00    +0.240 C 
ATOM      4  C   LIG    1       -1.150   1.748  -3.911  0.00  0.00    +0.080 C 
ENDBRANCH   1   3
BRANCH   1   5
ATOM      5  C   LIG    1        0.605  -0.366  -1.358  0.00  0.00    +0.160 C 
BRANCH   5   7
ATOM      6  C   LIG    1        2.733   0.513  -2.327  0.00  0.00    +0.040 C 
ATOM      7  C   LIG    1        1.728   0.658  -1.183  0.00  0.00    +0.050 C 
ENDBRANCH   5   7
BRANCH   5   8
ATOM      8  C   LIG    1       -0.319  -0.323  -0.140  0.00  0.00    +0.050 C 
ATOM      9  C   LIG    1       -1.348  -1.451  -0.240  0.00  0.00    +0.030 C 
ENDBRANCH   5   8
ENDBRANCH   1   5
BRANCH   1  10
ATOM     10  C   LIG    1        0.489  -0.650  -3.737  0.00  0.00    +0.230 C 
BRANCH  10  11
ATOM     11  C   LIG    1        0.425  -2.175  -3.627  0.00  0.00    +0.040 C 
BRANCH  11  12
ATOM     12  C   LIG    1        1.189  -2.803  -4.795  0.00  0.00    -0.060 C 
ATOM     13  C   LIG    1        0.555  -2.360  -6.116  0.00  0.00    +0.030 C 
ATOM     14  C   LIG    1        1.126  -4.327  -4.685  0.00  0.00    +0.040 C 
ATOM     15  C   LIG    1        2.649  -2.348  -4.753  0.00  0.00    +0.020 C 
ENDBRANCH  11  12
ENDBRANCH  10  11
ENDBRANCH   1  10
TORSDOF 7
ENDMDL
MODEL      707
REMARK  Name = ZINC000591475631
REMARK                            x       y       z     vdW  Elec       q    Type
REMARK                         _______ _______ _______ _____ _____    ______ ____
ROOT
ATOM      1  N   LIG    1       -2.777  -2.580  -0.051  0.00  0.00    -0.350 N 
ATOM      2  H   LIG    1       -3.132  -2.286  -0.949  0.00  0.00    +0.420 HD
ENDROOT
BRANCH   1   3
ATOM      3  C   LIG    1       -3.543  -1.923   1.017  0.00  0.00    +0.090 C 
ATOM      4  C   LIG    1       -2.766  -1.069   2.021  0.00  0.00    +0.090 C 
ATOM      5  C   LIG    1       -3.655  -0.398   0.972  0.00  0.00    +0.090 C 
ENDBRANCH   1   3
BRANCH   1   6
ATOM      6  C   LIG    1       -2.911  -4.037   0.075  0.00  0.00    +0.170 C 
ATOM      7  C   LIG    1       -4.390  -4.421   0.012  0.00  0.00    +0.080 C 
BRANCH   6   8
ATOM      8  C   LIG    1       -2.157  -4.719  -1.068  0.00  0.00    -0.020 C 
ATOM      9  C   LIG    1       -2.745  -4.268  -2.407  0.00  0.00    +0.050 C 
BRANCH   8  10
ATOM     10  C   LIG    1       -2.296  -6.237  -0.937  0.00  0.00    +0.030 C 
ATOM     11  C   LIG    1       -1.442  -6.922  -2.006  0.00  0.00    +0.030 C 
ENDBRANCH   8  10
ENDBRANCH   6   8
ENDBRANCH   1   6
BRANCH   1  12
ATOM     12  C   LIG    1       -1.361  -2.206   0.061  0.00  0.00    +0.240 C 
BRANCH  12  13
ATOM     13  C   LIG    1       -1.187  -0.740  -0.340  0.00  0.00    +0.030 C 
BRANCH  13  15
ATOM     14  C   LIG    1        0.476   1.076  -0.763  0.00  0.00    +0.030 C 
ATOM     15  C   LIG    1        0.302  -0.391  -0.362  0.00  0.00    +0.020 C 
ENDBRANCH  13  15
ENDBRANCH  12  13
ENDBRANCH   1  12
TORSDOF 7
ENDMDL
MODEL      708
REMARK  Name = ZINC000591475633
REMARK                            x       y       z     vdW  Elec       q    Type
REMARK                         _______ _______ _______ _____ _____    ______ ____
ROOT
ATOM      1  N   LIG    1       -2.434  -2.797  -0.509  0.00  0.00    -0.360 N 
ATOM      2  H   LIG    1       -3.019  -2.603  -1.308  0.00  0.00    +0.420 HD
ENDROOT
BRANCH   1   3
ATOM      3  C   LIG    1       -2.860  -1.965   0.624  0.00  0.00    +0.090 C 
ATOM      4  C   LIG    1       -3.747  -0.756   0.319  0.00  0.00    +0.090 C 
ATOM      5  C   LIG    1       -4.343  -1.989   1.000  0.00  0.00    +0.090 C 
ENDBRANCH   1   3
BRANCH   1   6
ATOM      6  C   LIG    1       -2.554  -4.216  -0.147  0.00  0.00    +0.160 C 
ATOM      7  C   LIG    1       -1.814  -4.471   1.167  0.00  0.00    +0.080 C 
BRANCH   6   8
ATOM      8  C   LIG    1       -4.032  -4.575   0.021  0.00  0.00    -0.010 C 
ATOM      9  C   LIG    1       -4.800  -4.182  -1.242  0.00  0.00    +0.030 C 
BRANCH   8  10
ATOM     10  C   LIG    1       -4.167  -6.082   0.253  0.00  0.00    +0.030 C 
ATOM     11  C   LIG    1       -5.629  -6.424   0.545  0.00  0.00    +0.030 C 
ENDBRANCH   8  10
ENDBRANCH   6   8
ENDBRANCH   1   6
BRANCH   1  12
ATOM     12  C   LIG    1       -1.035  -2.493  -0.840  0.00  0.00    +0.250 C 
BRANCH  12  13
ATOM     13  C   LIG    1       -0.931  -1.049  -1.335  0.00  0.00    +0.020 C 
BRANCH  13  15
ATOM     14  C   LIG    1        0.631   0.712  -2.174  0.00  0.00    +0.030 C 
ATOM     15  C   LIG    1        0.526  -0.732  -1.680  0.00  0.00    +0.020 C 
ENDBRANCH  13  15
ENDBRANCH  12  13
ENDBRANCH   1  12
TORSDOF 7
ENDMDL
MODEL      709
REMARK  Name = ZINC000591475634
REMARK                            x       y       z     vdW  Elec       q    Type
REMARK                         _______ _______ _______ _____ _____    ______ ____
ROOT
ATOM      1  N   LIG    1       -2.718  -2.614   0.160  0.00  0.00    -0.360 N 
ATOM      2  H   LIG    1       -3.330  -2.203  -0.529  0.00  0.00    +0.420 HD
ENDROOT
BRANCH   1   3
ATOM      3  C   LIG    1       -3.275  -2.399   1.502  0.00  0.00    +0.090 C 
ATOM      4  C   LIG    1       -4.489  -1.475   1.623  0.00  0.00    +0.100 C 
ATOM      5  C   LIG    1       -4.657  -2.986   1.795  0.00  0.00    +0.090 C 
ENDBRANCH   1   3
BRANCH   1   6
ATOM      6  C   LIG    1       -2.593  -4.056  -0.094  0.00  0.00    +0.170 C 
ATOM      7  C   LIG    1       -1.601  -4.664   0.900  0.00  0.00    +0.090 C 
BRANCH   6   8
ATOM      8  C   LIG    1       -2.089  -4.281  -1.521  0.00  0.00    -0.020 C 
ATOM      9  C   LIG    1       -3.062  -3.640  -2.512  0.00  0.00    +0.040 C 
BRANCH   8  10
ATOM     10  C   LIG    1       -1.995  -5.783  -1.797  0.00  0.00    +0.030 C 
ATOM     11  C   LIG    1       -1.375  -6.010  -3.177  0.00  0.00    +0.030 C 
ENDBRANCH   8  10
ENDBRANCH   6   8
ENDBRANCH   1   6
BRANCH   1  12
ATOM     12  C   LIG    1       -1.393  -1.985   0.073  0.00  0.00    +0.250 C 
BRANCH  12  13
ATOM     13  C   LIG    1       -1.538  -0.468   0.213  0.00  0.00    +0.030 C 
BRANCH  13  15
ATOM     14  C   LIG    1       -0.304   1.703   0.263  0.00  0.00    +0.030 C 
ATOM     15  C   LIG    1       -0.158   0.186   0.123  0.00  0.00    +0.020 C 
ENDBRANCH  13  15
ENDBRANCH  12  13
ENDBRANCH   1  12
TORSDOF 7
ENDMDL
MODEL      710
REMARK  Name = ZINC000591476477
REMARK                            x       y       z     vdW  Elec       q    Type
REMARK                         _______ _______ _______ _____ _____    ______ ____
ROOT
ATOM      1  N   LIG    1       -3.023  -2.119   0.234  0.00  0.00    -0.360 N 
ATOM      2  H   LIG    1       -3.769  -1.657   0.733  0.00  0.00    +0.420 HD
ENDROOT
BRANCH   1   3
ATOM      3  C   LIG    1       -2.895  -3.501   0.715  0.00  0.00    +0.100 C 
ATOM      4  C   LIG    1       -3.524  -3.840   2.067  0.00  0.00    +0.090 C 
ATOM      5  C   LIG    1       -4.167  -4.349   0.776  0.00  0.00    +0.090 C 
ENDBRANCH   1   3
BRANCH   1   6
ATOM      6  C   LIG    1       -1.762  -1.402   0.464  0.00  0.00    +0.170 C 
ATOM      7  C   LIG    1       -0.627  -2.118  -0.271  0.00  0.00    +0.090 C 
BRANCH   6   8
ATOM      8  C   LIG    1       -1.460  -1.370   1.963  0.00  0.00    -0.010 C 
ATOM      9  C   LIG    1       -2.573  -0.616   2.692  0.00  0.00    +0.030 C 
BRANCH   8  11
ATOM     10  C   LIG    1        0.239  -0.738   3.683  0.00  0.00    +0.030 C 
ATOM     11  C   LIG    1       -0.124  -0.661   2.199  0.00  0.00    +0.030 C 
ENDBRANCH   8  11
ENDBRANCH   6   8
ENDBRANCH   1   6
BRANCH   1  12
ATOM     12  C   LIG    1       -3.327  -2.127  -1.203  0.00  0.00    +0.250 C 
BRANCH  12  13
ATOM     13  C   LIG    1       -4.721  -2.717  -1.427  0.00  0.00    -0.020 C 
ATOM     14  C   LIG    1       -5.065  -2.662  -2.916  0.00  0.00    +0.070 C 
ATOM     15  C   LIG    1       -5.750  -1.907  -0.635  0.00  0.00    +0.040 C 
ENDBRANCH  12  13
ENDBRANCH   1  12
TORSDOF 6
ENDMDL
MODEL      711
REMARK  Name = ZINC000591475632
REMARK                            x       y       z     vdW  Elec       q    Type
REMARK                         _______ _______ _______ _____ _____    ______ ____
ROOT
ATOM      1  N   LIG    1       -2.834  -2.648  -0.339  0.00  0.00    -0.360 N 
ATOM      2  H   LIG    1       -3.494  -2.678  -1.101  0.00  0.00    +0.420 HD
ENDROOT
BRANCH   1   3
ATOM      3  C   LIG    1       -3.438  -1.954   0.806  0.00  0.00    +0.090 C 
ATOM      4  C   LIG    1       -4.659  -1.073   0.534  0.00  0.00    +0.090 C 
ATOM      5  C   LIG    1       -4.827  -2.411   1.257  0.00  0.00    +0.090 C 
ENDBRANCH   1   3
BRANCH   1   6
ATOM      6  C   LIG    1       -2.475  -4.018   0.052  0.00  0.00    +0.170 C 
ATOM      7  C   LIG    1       -1.719  -4.694  -1.093  0.00  0.00    +0.080 C 
BRANCH   6   8
ATOM      8  C   LIG    1       -3.748  -4.810   0.361  0.00  0.00    -0.010 C 
ATOM      9  C   LIG    1       -4.693  -4.743  -0.840  0.00  0.00    +0.040 C 
BRANCH   8  10
ATOM     10  C   LIG    1       -3.384  -6.269   0.643  0.00  0.00    +0.030 C 
ATOM     11  C   LIG    1       -4.638  -7.032   1.073  0.00  0.00    +0.030 C 
ENDBRANCH   8  10
ENDBRANCH   6   8
ENDBRANCH   1   6
BRANCH   1  12
ATOM     12  C   LIG    1       -1.626  -1.929  -0.766  0.00  0.00    +0.250 C 
BRANCH  12  13
ATOM     13  C   LIG    1       -2.015  -0.545  -1.290  0.00  0.00    +0.020 C 
BRANCH  13  15
ATOM     14  C   LIG    1       -1.146   1.587  -2.260  0.00  0.00    +0.030 C 
ATOM     15  C   LIG    1       -0.757   0.204  -1.735  0.00  0.00    +0.020 C 
ENDBRANCH  13  15
ENDBRANCH  12  13
ENDBRANCH   1  12
TORSDOF 7
ENDMDL
MODEL      712
REMARK  Name = ZINC000591476475
REMARK                            x       y       z     vdW  Elec       q    Type
REMARK                         _______ _______ _______ _____ _____    ______ ____
ROOT
ATOM      1  N   LIG    1       -2.827  -2.277   0.020  0.00  0.00    -0.360 N 
ATOM      2  H   LIG    1       -3.382  -1.784   0.703  0.00  0.00    +0.410 HD
ENDROOT
BRANCH   1   3
ATOM      3  C   LIG    1       -2.834  -3.713   0.330  0.00  0.00    +0.090 C 
ATOM      4  C   LIG    1       -3.242  -4.129   1.744  0.00  0.00    +0.090 C 
ATOM      5  C   LIG    1       -4.191  -4.378   0.570  0.00  0.00    +0.090 C 
ENDBRANCH   1   3
BRANCH   1   6
ATOM      6  C   LIG    1       -1.447  -1.775   0.056  0.00  0.00    +0.170 C 
ATOM      7  C   LIG    1       -0.811  -2.126   1.403  0.00  0.00    +0.090 C 
BRANCH   6   8
ATOM      8  C   LIG    1       -1.452  -0.256  -0.126  0.00  0.00    -0.020 C 
ATOM      9  C   LIG    1       -2.209   0.393   1.034  0.00  0.00    +0.050 C 
BRANCH   8  11
ATOM     10  C   LIG    1       -0.011   1.759  -0.452  0.00  0.00    +0.030 C 
ATOM     11  C   LIG    1       -0.012   0.260  -0.147  0.00  0.00    +0.030 C 
ENDBRANCH   8  11
ENDBRANCH   6   8
ENDBRANCH   1   6
BRANCH   1  12
ATOM     12  C   LIG    1       -3.392  -2.062  -1.319  0.00  0.00    +0.250 C 
BRANCH  12  13
ATOM     13  C   LIG    1       -4.872  -2.448  -1.315  0.00  0.00    -0.020 C 
ATOM     14  C   LIG    1       -5.481  -2.149  -2.687  0.00  0.00    +0.070 C 
ATOM     15  C   LIG    1       -5.608  -1.640  -0.244  0.00  0.00    +0.040 C 
ENDBRANCH  12  13
ENDBRANCH   1  12
TORSDOF 6
ENDMDL
MODEL      713
REMARK  Name = ZINC001202087186
REMARK                            x       y       z     vdW  Elec       q    Type
REMARK                         _______ _______ _______ _____ _____    ______ ____
ROOT
ATOM      1  C   LIG    1       -0.019   1.524   0.010  0.00  0.00    +0.040 C 
ATOM      2  C   LIG    1        0.002  -0.004   0.002  0.00  0.00    -0.010 C 
ATOM      3  C   LIG    1        0.639  -0.524  -1.282  0.00  0.00    +0.060 C 
ATOM      4  C   LIG    1        2.156  -0.349  -1.230  0.00  0.00    +0.240 C 
ATOM      5  N   LIG    1        2.693  -1.114  -0.103  0.00  0.00    -0.370 N 
ATOM      6  C   LIG    1        2.191  -0.622   1.175  0.00  0.00    +0.160 C 
ATOM      7  C   LIG    1        2.825   0.723   1.528  0.00  0.00    +0.080 C 
ATOM      8  H   LIG    1        2.427  -2.088  -0.213  0.00  0.00    +0.420 HD
ATOM      9  C   LIG    1        0.677  -0.557   1.245  0.00  0.00    +0.070 C 
ENDROOT
BRANCH   5  10
ATOM     10  C   LIG    1        4.162  -1.032  -0.118  0.00  0.00    +0.240 C 
BRANCH  10  11
ATOM     11  C   LIG    1        4.699  -1.723  -1.373  0.00  0.00    +0.040 C 
BRANCH  11  12
ATOM     12  C   LIG    1        6.227  -1.637  -1.389  0.00  0.00    -0.060 C 
ATOM     13  C   LIG    1        6.655  -0.168  -1.393  0.00  0.00    +0.030 C 
ATOM     14  C   LIG    1        6.764  -2.328  -2.644  0.00  0.00    +0.040 C 
ATOM     15  C   LIG    1        6.789  -2.328  -0.146  0.00  0.00    +0.030 C 
ENDBRANCH  11  12
ENDBRANCH  10  11
ENDBRANCH   5  10
TORSDOF 3
ENDMDL
MODEL      714
REMARK  Name = ZINC000591476476
REMARK                            x       y       z     vdW  Elec       q    Type
REMARK                         _______ _______ _______ _____ _____    ______ ____
ROOT
ATOM      1  N   LIG    1       -2.791  -2.653  -0.228  0.00  0.00    -0.350 N 
ATOM      2  H   LIG    1       -3.268  -2.292  -1.040  0.00  0.00    +0.420 HD
ENDROOT
BRANCH   1   3
ATOM      3  C   LIG    1       -3.561  -2.323   0.979  0.00  0.00    +0.090 C 
ATOM      4  C   LIG    1       -2.869  -1.476   2.049  0.00  0.00    +0.100 C 
ATOM      5  C   LIG    1       -3.968  -0.862   1.179  0.00  0.00    +0.090 C 
ENDBRANCH   1   3
BRANCH   1   6
ATOM      6  C   LIG    1       -1.455  -2.050  -0.137  0.00  0.00    +0.160 C 
ATOM      7  C   LIG    1       -0.639  -2.777   0.935  0.00  0.00    +0.090 C 
BRANCH   6   8
ATOM      8  C   LIG    1       -0.746  -2.172  -1.487  0.00  0.00    -0.020 C 
ATOM      9  C   LIG    1       -1.510  -1.365  -2.539  0.00  0.00    +0.040 C 
BRANCH   8  11
ATOM     10  C   LIG    1        1.428  -1.867  -2.679  0.00  0.00    +0.030 C 
ATOM     11  C   LIG    1        0.680  -1.631  -1.366  0.00  0.00    +0.030 C 
ENDBRANCH   8  11
ENDBRANCH   6   8
ENDBRANCH   1   6
BRANCH   1  12
ATOM     12  C   LIG    1       -2.663  -4.112  -0.344  0.00  0.00    +0.250 C 
BRANCH  12  13
ATOM     13  C   LIG    1       -4.048  -4.731  -0.544  0.00  0.00    -0.030 C 
ATOM     14  C   LIG    1       -3.919  -6.254  -0.620  0.00  0.00    +0.070 C 
ATOM     15  C   LIG    1       -4.658  -4.205  -1.844  0.00  0.00    +0.030 C 
ENDBRANCH  12  13
ENDBRANCH   1  12
TORSDOF 6
ENDMDL
MODEL      715
REMARK  Name = ZINC000591476474
REMARK                            x       y       z     vdW  Elec       q    Type
REMARK                         _______ _______ _______ _____ _____    ______ ____
ROOT
ATOM      1  N   LIG    1       -2.761  -2.566   0.139  0.00  0.00    -0.360 N 
ATOM      2  H   LIG    1       -3.093  -2.369  -0.794  0.00  0.00    +0.420 HD
ENDROOT
BRANCH   1   3
ATOM      3  C   LIG    1       -3.527  -1.770   1.108  0.00  0.00    +0.100 C 
ATOM      4  C   LIG    1       -2.746  -0.803   2.001  0.00  0.00    +0.090 C 
ATOM      5  C   LIG    1       -3.619  -0.262   0.867  0.00  0.00    +0.090 C 
ENDBRANCH   1   3
BRANCH   1   6
ATOM      6  C   LIG    1       -1.337  -2.219   0.236  0.00  0.00    +0.160 C 
ATOM      7  C   LIG    1       -0.517  -3.188  -0.617  0.00  0.00    +0.080 C 
BRANCH   6   8
ATOM      8  C   LIG    1       -1.125  -0.790  -0.270  0.00  0.00    -0.020 C 
ATOM      9  C   LIG    1       -1.683  -0.663  -1.689  0.00  0.00    +0.040 C 
BRANCH   8  11
ATOM     10  C   LIG    1        0.576   0.997  -0.665  0.00  0.00    +0.030 C 
ATOM     11  C   LIG    1        0.371  -0.469  -0.280  0.00  0.00    +0.030 C 
ENDBRANCH   8  11
ENDBRANCH   6   8
ENDBRANCH   1   6
BRANCH   1  12
ATOM     12  C   LIG    1       -2.938  -3.995   0.430  0.00  0.00    +0.260 C 
BRANCH  12  13
ATOM     13  C   LIG    1       -4.402  -4.382   0.214  0.00  0.00    -0.030 C 
ATOM     14  C   LIG    1       -4.612  -5.838   0.635  0.00  0.00    +0.070 C 
ATOM     15  C   LIG    1       -4.759  -4.222  -1.265  0.00  0.00    +0.030 C 
ENDBRANCH  12  13
ENDBRANCH   1  12
TORSDOF 6
ENDMDL
MODEL      716
REMARK  Name = ZINC000674863231
REMARK                            x       y       z     vdW  Elec       q    Type
REMARK                         _______ _______ _______ _____ _____    ______ ____
ROOT
ATOM      1  N   LIG    1        1.467  -1.925   2.512  0.00  0.00    -0.380 N 
ATOM      2  H   LIG    1        2.188  -1.253   2.729  0.00  0.00    +0.420 HD
ENDROOT
BRANCH   1   3
ATOM      3  C   LIG    1        2.087  -3.204   2.142  0.00  0.00    +0.150 C 
ATOM      4  C   LIG    1        2.983  -3.031   0.891  0.00  0.00    +0.040 C 
ATOM      5  C   LIG    1        3.974  -4.215   1.013  0.00  0.00    +0.050 C 
ATOM      6  C   LIG    1        4.260  -4.315   2.526  0.00  0.00    +0.030 C 
ATOM      7  C   LIG    1        3.060  -3.672   3.243  0.00  0.00    +0.050 C 
ENDBRANCH   1   3
BRANCH   1   8
ATOM      8  C   LIG    1        0.608  -2.119   3.688  0.00  0.00    +0.160 C 
ATOM      9  C   LIG    1        1.475  -2.446   4.905  0.00  0.00    +0.090 C 
ATOM     10  C   LIG    1       -0.361  -3.274   3.426  0.00  0.00    +0.080 C 
ENDBRANCH   1   8
BRANCH   1  11
ATOM     11  C   LIG    1        0.658  -1.430   1.390  0.00  0.00    +0.250 C 
BRANCH  11  12
ATOM     12  C   LIG    1        0.075  -0.061   1.747  0.00  0.00    -0.030 C 
ATOM     13  C   LIG    1        1.210   0.954   1.893  0.00  0.00    +0.040 C 
BRANCH  12  15
ATOM     14  C   LIG    1       -1.554   1.701   1.051  0.00  0.00    +0.030 C 
ATOM     15  C   LIG    1       -0.876   0.393   0.638  0.00  0.00    +0.020 C 
ENDBRANCH  12  15
ENDBRANCH  11  12
ENDBRANCH   1  11
TORSDOF 5
ENDMDL
MODEL      717
REMARK  Name = ZINC001202055258
REMARK                            x       y       z     vdW  Elec       q    Type
REMARK                         _______ _______ _______ _____ _____    ______ ____
ROOT
ATOM      1  C   LIG    1       -0.019   1.526   0.010  0.00  0.00    +0.070 C 
ATOM      2  C   LIG    1        0.002  -0.004   0.002  0.00  0.00    -0.020 C 
ATOM      3  C   LIG    1       -1.417  -0.505  -0.035  0.00  0.00    +0.030 C 
ATOM      4  C   LIG    1       -1.459  -1.831  -0.835  0.00  0.00    +0.030 C 
ATOM      5  C   LIG    1       -0.928  -2.935  -0.044  0.00  0.00    +0.050 C 
ATOM      6  C   LIG    1        0.542  -2.738   0.358  0.00  0.00    +0.240 C 
ATOM      7  N   LIG    1        0.570  -1.919   1.546  0.00  0.00    -0.380 N 
ATOM      8  H   LIG    1       -0.310  -2.014   2.030  0.00  0.00    +0.420 HD
ATOM      9  C   LIG    1        0.791  -0.493   1.230  0.00  0.00    +0.250 C 
ENDROOT
BRANCH   7  10
ATOM     10  C   LIG    1        1.651  -2.388   2.424  0.00  0.00    +0.240 C 
BRANCH  10  11
ATOM     11  C   LIG    1        1.336  -3.804   2.909  0.00  0.00    +0.040 C 
BRANCH  11  12
ATOM     12  C   LIG    1        2.462  -4.292   3.824  0.00  0.00    -0.060 C 
ATOM     13  C   LIG    1        3.781  -4.299   3.049  0.00  0.00    +0.030 C 
ATOM     14  C   LIG    1        2.148  -5.708   4.309  0.00  0.00    +0.040 C 
ATOM     15  C   LIG    1        2.583  -3.355   5.027  0.00  0.00    +0.030 C 
ENDBRANCH  11  12
ENDBRANCH  10  11
ENDBRANCH   7  10
TORSDOF 3
ENDMDL
MODEL      718
REMARK  Name = ZINC001202177850
REMARK                            x       y       z     vdW  Elec       q    Type
REMARK                         _______ _______ _______ _____ _____    ______ ____
ROOT
ATOM      1  N   LIG    1       -2.077  -0.249   1.558  0.00  0.00    -0.380 N 
ATOM      2  H   LIG    1       -1.603  -0.664   2.346  0.00  0.00    +0.420 HD
ENDROOT
BRANCH   1   3
ATOM      3  C   LIG    1       -2.099   1.211   1.713  0.00  0.00    +0.240 C 
ATOM      4  C   LIG    1       -2.702   1.571   3.072  0.00  0.00    +0.080 C 
ENDBRANCH   1   3
BRANCH   1   5
ATOM      5  C   LIG    1       -1.369  -0.600   0.320  0.00  0.00    +0.160 C 
BRANCH   5   7
ATOM      6  C   LIG    1       -3.128   0.424  -1.129  0.00  0.00    +0.030 C 
ATOM      7  C   LIG    1       -1.648   0.462  -0.745  0.00  0.00    +0.050 C 
ENDBRANCH   5   7
BRANCH   5   8
ATOM      8  C   LIG    1        0.135  -0.666   0.594  0.00  0.00    +0.050 C 
ATOM      9  C   LIG    1        0.431  -1.830   1.541  0.00  0.00    +0.030 C 
ENDBRANCH   5   8
ENDBRANCH   1   5
BRANCH   1  10
ATOM     10  C   LIG    1       -3.455  -0.755   1.495  0.00  0.00    +0.250 C 
BRANCH  10  11
ATOM     11  C   LIG    1       -3.436  -2.285   1.475  0.00  0.00    -0.020 C 
ATOM     12  C   LIG    1       -2.998  -2.840   2.853  0.00  0.00    +0.010 C 
ATOM     13  C   LIG    1       -3.602  -4.266   2.856  0.00  0.00    +0.030 C 
ATOM     14  C   LIG    1       -4.967  -4.099   2.158  0.00  0.00    +0.010 C 
ATOM     15  C   LIG    1       -4.862  -2.840   1.280  0.00  0.00    +0.040 C 
ENDBRANCH  10  11
ENDBRANCH   1  10
TORSDOF 6
ENDMDL
MODEL      719
REMARK  Name = ZINC001202166642
REMARK                            x       y       z     vdW  Elec       q    Type
REMARK                         _______ _______ _______ _____ _____    ______ ____
ROOT
ATOM      1  N   LIG    1       -2.896  -2.613   0.169  0.00  0.00    -0.390 N 
ATOM      2  H   LIG    1       -3.560  -2.190   0.800  0.00  0.00    +0.420 HD
ENDROOT
BRANCH   1   3
ATOM      3  C   LIG    1       -1.541  -2.158   0.507  0.00  0.00    +0.240 C 
BRANCH   3   4
ATOM      4  C   LIG    1       -1.500  -0.629   0.501  0.00  0.00    +0.030 C 
BRANCH   4   6
ATOM      5  C   LIG    1       -0.047   1.374   0.848  0.00  0.00    +0.030 C 
ATOM      6  C   LIG    1       -0.088  -0.155   0.853  0.00  0.00    +0.020 C 
ENDBRANCH   4   6
ENDBRANCH   3   4
ENDBRANCH   1   3
BRANCH   1   7
ATOM      7  C   LIG    1       -2.967  -4.075   0.291  0.00  0.00    +0.250 C 
BRANCH   7   8
ATOM      8  C   LIG    1       -2.768  -4.475   1.755  0.00  0.00    -0.020 C 
ATOM      9  C   LIG    1       -4.000  -4.064   2.600  0.00  0.00    +0.010 C 
ATOM     10  C   LIG    1       -3.921  -5.030   3.809  0.00  0.00    +0.030 C 
ATOM     11  C   LIG    1       -3.442  -6.363   3.198  0.00  0.00    +0.010 C 
ATOM     12  C   LIG    1       -2.710  -6.010   1.892  0.00  0.00    +0.040 C 
ENDBRANCH   7   8
ENDBRANCH   1   7
BRANCH   1  13
ATOM     13  C   LIG    1       -3.214  -2.221  -1.211  0.00  0.00    +0.240 C 
BRANCH  13  14
ATOM     14  C   LIG    1       -4.671  -2.572  -1.518  0.00  0.00    +0.030 C 
ATOM     15  C   LIG    1       -4.997  -2.180  -2.960  0.00  0.00    +0.060 C 
ENDBRANCH  13  14
ENDBRANCH   1  13
TORSDOF 7
ENDMDL
MODEL      720
REMARK  Name = ZINC001202087185
REMARK                            x       y       z     vdW  Elec       q    Type
REMARK                         _______ _______ _______ _____ _____    ______ ____
ROOT
ATOM      1  C   LIG    1       -0.019   1.526   0.010  0.00  0.00    +0.090 C 
ATOM      2  C   LIG    1        0.002  -0.004   0.002  0.00  0.00    +0.160 C 
ATOM      3  C   LIG    1       -1.434  -0.533   0.011  0.00  0.00    +0.060 C 
ATOM      4  C   LIG    1       -1.408  -2.064   0.003  0.00  0.00    -0.010 C 
ATOM      5  C   LIG    1       -0.600  -2.558   1.206  0.00  0.00    +0.060 C 
ATOM      6  C   LIG    1        0.805  -1.954   1.152  0.00  0.00    +0.250 C 
ATOM      7  C   LIG    1       -0.756  -2.558  -1.291  0.00  0.00    +0.030 C 
ATOM      8  N   LIG    1        0.713  -0.490   1.191  0.00  0.00    -0.380 N 
ATOM      9  H   LIG    1        0.214  -0.207   2.020  0.00  0.00    +0.420 HD
ENDROOT
BRANCH   8  10
ATOM     10  C   LIG    1        2.066   0.084   1.216  0.00  0.00    +0.250 C 
BRANCH  10  11
ATOM     11  C   LIG    1        2.764  -0.313   2.518  0.00  0.00    +0.040 C 
BRANCH  11  12
ATOM     12  C   LIG    1        4.172   0.285   2.544  0.00  0.00    -0.060 C 
ATOM     13  C   LIG    1        4.973  -0.246   1.354  0.00  0.00    +0.030 C 
ATOM     14  C   LIG    1        4.870  -0.112   3.847  0.00  0.00    +0.040 C 
ATOM     15  C   LIG    1        4.081   1.810   2.459  0.00  0.00    +0.030 C 
ENDBRANCH  11  12
ENDBRANCH  10  11
ENDBRANCH   8  10
TORSDOF 3
ENDMDL
MODEL      721
REMARK  Name = ZINC000674863230
REMARK                            x       y       z     vdW  Elec       q    Type
REMARK                         _______ _______ _______ _____ _____    ______ ____
ROOT
ATOM      1  N   LIG    1        1.314  -1.818   3.852  0.00  0.00    -0.380 N 
ATOM      2  H   LIG    1        2.102  -1.204   3.712  0.00  0.00    +0.420 HD
ENDROOT
BRANCH   1   3
ATOM      3  C   LIG    1        1.795  -3.155   4.224  0.00  0.00    +0.160 C 
ATOM      4  C   LIG    1        2.955  -3.592   3.296  0.00  0.00    +0.050 C 
ATOM      5  C   LIG    1        3.703  -4.642   4.155  0.00  0.00    +0.050 C 
ATOM      6  C   LIG    1        3.638  -4.074   5.588  0.00  0.00    +0.030 C 
ATOM      7  C   LIG    1        2.425  -3.129   5.632  0.00  0.00    +0.040 C 
ENDBRANCH   1   3
BRANCH   1   8
ATOM      8  C   LIG    1        0.464  -1.286   4.925  0.00  0.00    +0.160 C 
ATOM      9  C   LIG    1       -0.834  -2.094   4.995  0.00  0.00    +0.080 C 
ATOM     10  C   LIG    1        0.136   0.180   4.637  0.00  0.00    +0.090 C 
ENDBRANCH   1   8
BRANCH   1  11
ATOM     11  C   LIG    1        0.536  -1.906   2.609  0.00  0.00    +0.250 C 
BRANCH  11  12
ATOM     12  C   LIG    1        1.489  -2.004   1.416  0.00  0.00    -0.020 C 
ATOM     13  C   LIG    1        2.489  -0.847   1.466  0.00  0.00    +0.040 C 
BRANCH  12  15
ATOM     14  C   LIG    1        1.624  -2.153  -1.074  0.00  0.00    +0.030 C 
ATOM     15  C   LIG    1        0.688  -1.930   0.115  0.00  0.00    +0.020 C 
ENDBRANCH  12  15
ENDBRANCH  11  12
ENDBRANCH   1  11
TORSDOF 5
ENDMDL
MODEL      722
REMARK  Name = ZINC000196670285
REMARK                            x       y       z     vdW  Elec       q    Type
REMARK                         _______ _______ _______ _____ _____    ______ ____
ROOT
ATOM      1  N   LIG    1        1.388  -2.272  -2.589  0.00  0.00    -0.380 N 
ATOM      2  H   LIG    1        1.158  -1.835  -3.469  0.00  0.00    +0.420 HD
ENDROOT
BRANCH   1   3
ATOM      3  C   LIG    1        1.049  -3.700  -2.648  0.00  0.00    +0.160 C 
ATOM      4  C   LIG    1        1.277  -4.335  -1.275  0.00  0.00    +0.040 C 
ATOM      5  C   LIG    1        0.924  -5.823  -1.336  0.00  0.00    +0.030 C 
ATOM      6  C   LIG    1       -0.545  -5.982  -1.734  0.00  0.00    +0.020 C 
ATOM      7  C   LIG    1       -0.773  -5.347  -3.107  0.00  0.00    +0.030 C 
ATOM      8  C   LIG    1       -0.420  -3.859  -3.046  0.00  0.00    +0.040 C 
ENDBRANCH   1   3
BRANCH   1   9
ATOM      9  C   LIG    1        0.626  -1.631  -1.510  0.00  0.00    +0.240 C 
BRANCH   9  10
ATOM     10  C   LIG    1        0.884  -0.123  -1.528  0.00  0.00    +0.030 C 
BRANCH  10  12
ATOM     11  C   LIG    1        0.347   2.052  -0.422  0.00  0.00    +0.030 C 
ATOM     12  C   LIG    1        0.089   0.544  -0.404  0.00  0.00    +0.020 C 
ENDBRANCH  10  12
ENDBRANCH   9  10
ENDBRANCH   1   9
BRANCH   1  13
ATOM     13  C   LIG    1        2.826  -2.121  -2.329  0.00  0.00    +0.240 C 
BRANCH  13  14
ATOM     14  C   LIG    1        3.620  -2.660  -3.521  0.00  0.00    +0.020 C 
ATOM     15  C   LIG    1        5.108  -2.373  -3.315  0.00  0.00    +0.060 C 
ENDBRANCH  13  14
ENDBRANCH   1  13
TORSDOF 6
ENDMDL
MODEL      723
REMARK  Name = ZINC001239789586
REMARK                            x       y       z     vdW  Elec       q    Type
REMARK                         _______ _______ _______ _____ _____    ______ ____
ROOT
ATOM      1  C   LIG    1       -0.018   1.503   0.010  0.00  0.00    +0.200 C 
ATOM      2  C   LIG    1        0.002  -0.004   0.002  0.00  0.00    +0.170 A 
ATOM      3  C   LIG    1        0.005  -0.678  -1.206  0.00  0.00    +0.050 A 
ATOM      4  C   LIG    1        0.024  -2.062  -1.210  0.00  0.00    +0.060 A 
ATOM      5  C   LIG    1        0.039  -2.728   0.021  0.00  0.00    -0.040 A 
ATOM      6  C   LIG    1        0.035  -1.975   1.195  0.00  0.00    +0.170 A 
ATOM      7  C   LIG    1        0.050  -2.674   2.530  0.00  0.00    +0.200 C 
ATOM      8  C   LIG    1        0.029  -2.831  -2.506  0.00  0.00    +0.170 C 
ATOM      9  N   LIG    1        0.022  -0.659   1.147  0.00  0.00    -0.450 N 
ATOM     10  H   LIG    1        0.019  -0.157   1.977  0.00  0.00    +0.450 HD
ENDROOT
BRANCH   5  11
ATOM     11  C   LIG    1        0.060  -4.205   0.075  0.00  0.00    -0.150 C 
ATOM     12  C   LIG    1        1.159  -4.939   0.103  0.00  0.00    +0.040 C 
ATOM     13  C   LIG    1        0.820  -6.411   0.158  0.00  0.00    +0.070 C 
ATOM     14  C   LIG    1       -0.665  -6.460   0.585  0.00  0.00    +0.030 C 
ATOM     15  C   LIG    1       -1.172  -5.080   0.112  0.00  0.00    +0.070 C 
ENDBRANCH   5  11
TORSDOF 1
ENDMDL
MODEL      724
REMARK  Name = ZINC000675640335
REMARK                            x       y       z     vdW  Elec       q    Type
REMARK                         _______ _______ _______ _____ _____    ______ ____
ROOT
ATOM      1  N   LIG    1       -0.207  -1.293  -2.309  0.00  0.00    -0.380 N 
ATOM      2  H   LIG    1       -0.865  -1.785  -1.722  0.00  0.00    +0.420 HD
ENDROOT
BRANCH   1   3
ATOM      3  C   LIG    1        0.459  -0.244  -1.526  0.00  0.00    +0.160 C 
BRANCH   3   5
ATOM      4  C   LIG    1        0.022  -1.420   0.635  0.00  0.00    +0.030 C 
ATOM      5  C   LIG    1        1.109  -0.866  -0.288  0.00  0.00    +0.050 C 
ENDBRANCH   3   5
BRANCH   3   6
ATOM      6  C   LIG    1        1.533   0.428  -2.383  0.00  0.00    +0.050 C 
ATOM      7  C   LIG    1        1.040   1.805  -2.832  0.00  0.00    +0.040 C 
ENDBRANCH   3   6
ENDBRANCH   1   3
BRANCH   1   8
ATOM      8  C   LIG    1        0.798  -2.238  -2.816  0.00  0.00    +0.280 C 
BRANCH   8   9
ATOM      9  C   LIG    1        1.064  -3.313  -1.760  0.00  0.00    -0.090 C 
ATOM     10  C   LIG    1        0.676  -4.753  -2.105  0.00  0.00    +0.050 C 
ATOM     11  C   LIG    1        2.151  -4.347  -2.064  0.00  0.00    +0.070 C 
ENDBRANCH   8   9
ENDBRANCH   1   8
BRANCH   1  12
ATOM     12  C   LIG    1       -0.919  -0.683  -3.439  0.00  0.00    +0.250 C 
BRANCH  12  13
ATOM     13  C   LIG    1       -2.036   0.220  -2.911  0.00  0.00    -0.030 C 
ATOM     14  C   LIG    1       -3.064  -0.627  -2.159  0.00  0.00    +0.030 C 
ATOM     15  C   LIG    1       -2.717   0.928  -4.084  0.00  0.00    +0.070 C 
ENDBRANCH  12  13
ENDBRANCH   1  12
TORSDOF 7
ENDMDL
MODEL      725
REMARK  Name = ZINC000594722278
REMARK                            x       y       z     vdW  Elec       q    Type
REMARK                         _______ _______ _______ _____ _____    ______ ____
ROOT
ATOM      1  N   LIG    1       -3.727  -1.090  -0.954  0.00  0.00    -0.370 N 
ATOM      2  H   LIG    1       -3.866  -2.078  -1.106  0.00  0.00    +0.420 HD
ENDROOT
BRANCH   1   3
ATOM      3  C   LIG    1       -5.032  -0.426  -0.830  0.00  0.00    +0.150 C 
ATOM      4  C   LIG    1       -5.906  -0.711  -2.076  0.00  0.00    +0.040 C 
ATOM      5  C   LIG    1       -7.344  -0.498  -1.541  0.00  0.00    +0.050 C 
ATOM      6  C   LIG    1       -7.305  -1.074  -0.111  0.00  0.00    +0.030 C 
ATOM      7  C   LIG    1       -5.835  -1.028   0.342  0.00  0.00    +0.030 C 
ENDBRANCH   1   3
BRANCH   1   8
ATOM      8  C   LIG    1       -2.993  -0.518  -2.090  0.00  0.00    +0.150 C 
ATOM      9  C   LIG    1       -1.681  -1.280  -2.285  0.00  0.00    +0.080 C 
ATOM     10  C   LIG    1       -2.690   0.956  -1.811  0.00  0.00    +0.080 C 
ENDBRANCH   1   8
BRANCH   1  11
ATOM     11  C   LIG    1       -2.956  -0.887   0.280  0.00  0.00    +0.280 C 
BRANCH  11  14
ATOM     12  C   LIG    1       -0.362   0.036   0.894  0.00  0.00    +0.090 C 
ATOM     13  C   LIG    1       -0.584  -1.410   0.534  0.00  0.00    -0.050 C 
ATOM     14  C   LIG    1       -1.798  -1.851   0.312  0.00  0.00    -0.110 C 
ATOM     15  C   LIG    1        0.590  -2.349   0.429  0.00  0.00    +0.090 C 
ENDBRANCH  11  14
ENDBRANCH   1  11
TORSDOF 4
ENDMDL
MODEL      726
REMARK  Name = ZINC000594724611
REMARK                            x       y       z     vdW  Elec       q    Type
REMARK                         _______ _______ _______ _____ _____    ______ ____
ROOT
ATOM      1  N   LIG    1       -2.860  -1.984   0.103  0.00  0.00    -0.380 N 
ATOM      2  H   LIG    1       -3.368  -1.331   0.680  0.00  0.00    +0.420 HD
ENDROOT
BRANCH   1   3
ATOM      3  C   LIG    1       -2.776  -3.281   0.789  0.00  0.00    +0.150 C 
ATOM      4  C   LIG    1       -2.024  -3.134   2.135  0.00  0.00    +0.040 C 
ATOM      5  C   LIG    1       -2.544  -4.344   2.950  0.00  0.00    +0.050 C 
ATOM      6  C   LIG    1       -4.034  -4.447   2.566  0.00  0.00    +0.030 C 
ATOM      7  C   LIG    1       -4.181  -3.771   1.191  0.00  0.00    +0.050 C 
ENDBRANCH   1   3
BRANCH   1   8
ATOM      8  C   LIG    1       -3.561  -2.153  -1.178  0.00  0.00    +0.160 C 
ATOM      9  C   LIG    1       -5.028  -2.498  -0.915  0.00  0.00    +0.090 C 
ATOM     10  C   LIG    1       -2.905  -3.284  -1.972  0.00  0.00    +0.080 C 
ENDBRANCH   1   8
BRANCH   1  11
ATOM     11  C   LIG    1       -1.506  -1.471  -0.143  0.00  0.00    +0.240 C 
BRANCH  11  12
ATOM     12  C   LIG    1       -1.595  -0.095  -0.805  0.00  0.00    +0.040 C 
BRANCH  12  14
ATOM     13  C   LIG    1       -0.265   1.817  -1.711  0.00  0.00    +0.040 C 
ATOM     14  C   LIG    1       -0.191   0.498  -0.939  0.00  0.00    -0.010 C 
ATOM     15  C   LIG    1        0.390   0.754   0.454  0.00  0.00    +0.020 C 
ENDBRANCH  12  14
ENDBRANCH  11  12
ENDBRANCH   1  11
TORSDOF 5
ENDMDL
MODEL      727
REMARK  Name = ZINC001204422853
REMARK                            x       y       z     vdW  Elec       q    Type
REMARK                         _______ _______ _______ _____ _____    ______ ____
ROOT
ATOM      1  C   LIG    1        1.192  -3.839   2.208  0.00  0.00    -0.020 C 
ATOM      2  C   LIG    1        2.127  -4.306   1.091  0.00  0.00    +0.030 C 
ATOM      3  C   LIG    1        1.966  -5.814   0.889  0.00  0.00    +0.020 C 
ATOM      4  C   LIG    1        2.317  -6.544   2.187  0.00  0.00    +0.020 C 
ATOM      5  C   LIG    1        1.382  -6.076   3.304  0.00  0.00    -0.060 C 
ATOM      6  C   LIG    1        1.733  -6.806   4.602  0.00  0.00    +0.030 C 
ATOM      7  C   LIG    1       -0.066  -6.387   2.920  0.00  0.00    +0.020 C 
ATOM      8  C   LIG    1        1.543  -4.568   3.506  0.00  0.00    +0.020 C 
ENDROOT
BRANCH   1   9
ATOM      9  C   LIG    1        1.354  -2.331   2.411  0.00  0.00    +0.250 C 
BRANCH   9  10
ATOM     10  N   LIG    1        0.365  -1.860   3.390  0.00  0.00    -0.390 N 
ATOM     11  C   LIG    1       -0.987  -2.023   2.839  0.00  0.00    +0.310 C 
ATOM     12  H   LIG    1        0.450  -2.399   4.239  0.00  0.00    +0.420 HD
BRANCH  10  13
ATOM     13  C   LIG    1        0.606  -0.441   3.685  0.00  0.00    +0.250 C 
BRANCH  13  15
ATOM     14  C   LIG    1       -0.091   1.495   5.103  0.00  0.00    +0.060 C 
ATOM     15  C   LIG    1       -0.341   0.017   4.796  0.00  0.00    +0.020 C 
ENDBRANCH  13  15
ENDBRANCH  10  13
ENDBRANCH   9  10
ENDBRANCH   1   9
TORSDOF 4
ENDMDL
MODEL      728
REMARK  Name = ZINC001204422852
REMARK                            x       y       z     vdW  Elec       q    Type
REMARK                         _______ _______ _______ _____ _____    ______ ____
ROOT
ATOM      1  C   LIG    1        1.274  -3.995   2.528  0.00  0.00    -0.020 C 
ATOM      2  C   LIG    1       -0.196  -4.415   2.598  0.00  0.00    +0.000 C 
ATOM      3  C   LIG    1       -0.287  -5.942   2.645  0.00  0.00    +0.020 C 
ATOM      4  C   LIG    1        0.451  -6.459   3.882  0.00  0.00    +0.020 C 
ATOM      5  C   LIG    1        1.920  -6.038   3.812  0.00  0.00    -0.060 C 
ATOM      6  C   LIG    1        2.559  -6.627   2.553  0.00  0.00    +0.020 C 
ATOM      7  C   LIG    1        2.658  -6.556   5.048  0.00  0.00    +0.030 C 
ATOM      8  C   LIG    1        2.012  -4.512   3.764  0.00  0.00    +0.040 C 
ENDROOT
BRANCH   1   9
ATOM      9  C   LIG    1        1.366  -2.468   2.480  0.00  0.00    +0.250 C 
BRANCH   9  10
ATOM     10  N   LIG    1        0.762  -1.980   1.234  0.00  0.00    -0.390 N 
ATOM     11  C   LIG    1        1.552  -2.453   0.089  0.00  0.00    +0.310 C 
ATOM     12  H   LIG    1       -0.182  -2.329   1.158  0.00  0.00    +0.420 HD
BRANCH  10  13
ATOM     13  C   LIG    1        0.742  -0.511   1.242  0.00  0.00    +0.250 C 
BRANCH  13  15
ATOM     14  C   LIG    1       -0.019   1.526   0.010  0.00  0.00    +0.060 C 
ATOM     15  C   LIG    1        0.002  -0.004   0.002  0.00  0.00    +0.020 C 
ENDBRANCH  13  15
ENDBRANCH  10  13
ENDBRANCH   9  10
ENDBRANCH   1   9
TORSDOF 4
ENDMDL
MODEL      729
REMARK  Name = ZINC001204626114
REMARK                            x       y       z     vdW  Elec       q    Type
REMARK                         _______ _______ _______ _____ _____    ______ ____
ROOT
ATOM      1  N   LIG    1        1.562  -2.521   2.336  0.00  0.00    -0.390 N 
ATOM      2  C   LIG    1        0.680  -2.359   3.500  0.00  0.00    +0.310 C 
ATOM      3  H   LIG    1        2.424  -2.022   2.496  0.00  0.00    +0.420 HD
ENDROOT
BRANCH   1   4
ATOM      4  C   LIG    1        1.850  -3.947   2.135  0.00  0.00    +0.170 C 
ATOM      5  C   LIG    1        2.768  -4.115   0.922  0.00  0.00    +0.040 C 
ATOM      6  C   LIG    1        3.068  -5.601   0.713  0.00  0.00    +0.040 C 
ATOM      7  C   LIG    1        3.759  -6.162   1.957  0.00  0.00    -0.010 C 
ATOM      8  C   LIG    1        2.841  -5.994   3.170  0.00  0.00    +0.040 C 
ATOM      9  C   LIG    1        5.067  -5.406   2.199  0.00  0.00    +0.010 C 
ATOM     10  C   LIG    1        2.541  -4.508   3.379  0.00  0.00    +0.040 C 
ENDBRANCH   1   4
BRANCH   1  11
ATOM     11  C   LIG    1        0.898  -1.982   1.141  0.00  0.00    +0.250 C 
BRANCH  11  12
ATOM     12  C   LIG    1        0.705  -0.472   1.302  0.00  0.00    -0.030 C 
ATOM     13  C   LIG    1       -0.108   0.066   0.124  0.00  0.00    +0.070 C 
BRANCH  12  15
ATOM     14  C   LIG    1        1.884   1.707   1.621  0.00  0.00    +0.040 C 
ATOM     15  C   LIG    1        2.071   0.216   1.336  0.00  0.00    +0.000 C 
ENDBRANCH  12  15
ENDBRANCH  11  12
ENDBRANCH   1  11
TORSDOF 4
ENDMDL
MODEL      730
REMARK  Name = ZINC001204626113
REMARK                            x       y       z     vdW  Elec       q    Type
REMARK                         _______ _______ _______ _____ _____    ______ ____
ROOT
ATOM      1  N   LIG    1        1.261  -2.516   2.549  0.00  0.00    -0.390 N 
ATOM      2  C   LIG    1        0.470  -2.039   3.690  0.00  0.00    +0.310 C 
ATOM      3  H   LIG    1        2.204  -2.163   2.622  0.00  0.00    +0.420 HD
ENDROOT
BRANCH   1   4
ATOM      4  C   LIG    1        1.286  -3.985   2.550  0.00  0.00    +0.170 C 
ATOM      5  C   LIG    1        2.111  -4.482   1.360  0.00  0.00    +0.040 C 
ATOM      6  C   LIG    1        2.137  -6.011   1.361  0.00  0.00    +0.040 C 
ATOM      7  C   LIG    1        2.768  -6.510   2.663  0.00  0.00    -0.010 C 
ATOM      8  C   LIG    1        1.943  -6.013   3.853  0.00  0.00    +0.040 C 
ATOM      9  C   LIG    1        4.197  -5.975   2.775  0.00  0.00    +0.010 C 
ATOM     10  C   LIG    1        1.917  -4.483   3.851  0.00  0.00    +0.040 C 
ENDBRANCH   1   4
BRANCH   1  11
ATOM     11  C   LIG    1        0.655  -2.037   1.299  0.00  0.00    +0.250 C 
BRANCH  11  12
ATOM     12  C   LIG    1        0.742  -0.511   1.242  0.00  0.00    -0.030 C 
ATOM     13  C   LIG    1        2.210  -0.086   1.169  0.00  0.00    +0.040 C 
BRANCH  12  15
ATOM     14  C   LIG    1       -0.019   1.526   0.010  0.00  0.00    +0.030 C 
ATOM     15  C   LIG    1        0.002  -0.004   0.002  0.00  0.00    +0.020 C 
ENDBRANCH  12  15
ENDBRANCH  11  12
ENDBRANCH   1  11
TORSDOF 4
ENDMDL
MODEL      731
REMARK  Name = ZINC001166997494
REMARK                            x       y       z     vdW  Elec       q    Type
REMARK                         _______ _______ _______ _____ _____    ______ ____
ROOT
ATOM      1  N   LIG    1        1.523  -2.478  -1.944  0.00  0.00    -0.380 N 
ATOM      2  H   LIG    1        1.290  -2.339  -2.916  0.00  0.00    +0.420 HD
ENDROOT
BRANCH   1   3
ATOM      3  C   LIG    1        1.435  -3.908  -1.619  0.00  0.00    +0.160 C 
ATOM      4  C   LIG    1        0.063  -4.442  -2.034  0.00  0.00    +0.040 C 
ATOM      5  C   LIG    1       -0.028  -5.932  -1.696  0.00  0.00    +0.030 C 
ATOM      6  C   LIG    1        1.065  -6.693  -2.449  0.00  0.00    +0.020 C 
ATOM      7  C   LIG    1        2.437  -6.159  -2.034  0.00  0.00    +0.030 C 
ATOM      8  C   LIG    1        2.528  -4.670  -2.372  0.00  0.00    +0.040 C 
ENDBRANCH   1   3
BRANCH   1   9
ATOM      9  C   LIG    1        2.891  -2.002  -1.696  0.00  0.00    +0.240 C 
ATOM     10  C   LIG    1        3.296  -2.341  -0.260  0.00  0.00    +0.070 C 
ENDBRANCH   1   9
BRANCH   1  11
ATOM     11  C   LIG    1        0.583  -1.726  -1.102  0.00  0.00    +0.240 C 
BRANCH  11  12
ATOM     12  C   LIG    1        0.141  -0.460  -1.837  0.00  0.00    -0.020 C 
ATOM     13  C   LIG    1        1.343   0.468  -2.023  0.00  0.00    +0.040 C 
BRANCH  12  15
ATOM     14  C   LIG    1       -1.465   1.454  -1.808  0.00  0.00    +0.030 C 
ATOM     15  C   LIG    1       -0.934   0.257  -1.017  0.00  0.00    +0.020 C 
ENDBRANCH  12  15
ENDBRANCH  11  12
ENDBRANCH   1  11
TORSDOF 5
ENDMDL
MODEL      732
REMARK  Name = ZINC001167157348
REMARK                            x       y       z     vdW  Elec       q    Type
REMARK                         _______ _______ _______ _____ _____    ______ ____
ROOT
ATOM      1  C   LIG    1       -1.292  -0.646  -0.086  0.00  0.00    +0.160 C 
ATOM      2  C   LIG    1       -1.165  -2.160   0.096  0.00  0.00    +0.060 C 
ATOM      3  C   LIG    1       -2.565  -2.778   0.172  0.00  0.00    +0.030 C 
ATOM      4  C   LIG    1       -3.345  -2.409  -1.093  0.00  0.00    +0.050 C 
ATOM      5  C   LIG    1       -3.390  -0.885  -1.231  0.00  0.00    +0.250 C 
ATOM      6  N   LIG    1       -2.023  -0.358  -1.326  0.00  0.00    -0.380 N 
ATOM      7  H   LIG    1       -1.550  -0.793  -2.104  0.00  0.00    +0.420 HD
ENDROOT
BRANCH   1   9
ATOM      8  C   LIG    1        0.836  -0.249   1.162  0.00  0.00    +0.060 C 
ATOM      9  C   LIG    1        0.104  -0.024  -0.163  0.00  0.00    +0.030 C 
ENDBRANCH   1   9
BRANCH   6  10
ATOM     10  C   LIG    1       -2.074   1.095  -1.534  0.00  0.00    +0.240 C 
BRANCH  10  11
ATOM     11  C   LIG    1       -2.728   1.394  -2.884  0.00  0.00    +0.030 C 
BRANCH  11  12
ATOM     12  C   LIG    1       -2.781   2.908  -3.101  0.00  0.00    +0.030 C 
BRANCH  12  13
ATOM     13  C   LIG    1       -3.435   3.207  -4.452  0.00  0.00    -0.030 C 
ATOM     14  C   LIG    1       -3.375   4.711  -4.725  0.00  0.00    +0.030 C 
ATOM     15  C   LIG    1       -4.896   2.751  -4.422  0.00  0.00    +0.020 C 
ENDBRANCH  12  13
ENDBRANCH  11  12
ENDBRANCH  10  11
ENDBRANCH   6  10
TORSDOF 5
ENDMDL
MODEL      733
REMARK  Name = ZINC001167237709
REMARK                            x       y       z     vdW  Elec       q    Type
REMARK                         _______ _______ _______ _____ _____    ______ ____
ROOT
ATOM      1  C   LIG    1        1.423  -4.108  -3.532  0.00  0.00    +0.240 C 
ENDROOT
BRANCH   1   2
ATOM      2  N   LIG    1        2.189  -4.553  -4.704  0.00  0.00    -0.390 N 
ATOM      3  C   LIG    1        3.621  -4.325  -4.468  0.00  0.00    +0.310 C 
ATOM      4  H   LIG    1        1.895  -4.031  -5.516  0.00  0.00    +0.420 HD
BRANCH   2   5
ATOM      5  C   LIG    1        1.951  -5.984  -4.930  0.00  0.00    +0.250 C 
BRANCH   5   6
ATOM      6  C   LIG    1        0.488  -6.203  -5.320  0.00  0.00    -0.030 C 
ATOM      7  C   LIG    1        0.213  -7.703  -5.446  0.00  0.00    +0.070 C 
ATOM      8  C   LIG    1        0.210  -5.519  -6.661  0.00  0.00    +0.030 C 
ENDBRANCH   5   6
ENDBRANCH   2   5
ENDBRANCH   1   2
BRANCH   1   9
ATOM      9  C   LIG    1        1.550  -2.590  -3.386  0.00  0.00    -0.010 C 
BRANCH   9  10
ATOM     10  C   LIG    1        0.822  -2.137  -2.119  0.00  0.00    +0.040 C 
ATOM     11  C   LIG    1        1.540  -2.699  -0.890  0.00  0.00    +0.020 C 
ENDBRANCH   9  10
BRANCH   9  12
ATOM     12  C   LIG    1        0.926  -1.906  -4.604  0.00  0.00    +0.000 C 
BRANCH  12  13
ATOM     13  C   LIG    1        1.163  -0.397  -4.519  0.00  0.00    +0.020 C 
BRANCH  13  15
ATOM     14  C   LIG    1        0.776   1.796  -5.652  0.00  0.00    +0.020 C 
ATOM     15  C   LIG    1        0.539   0.286  -5.737  0.00  0.00    -0.010 C 
ENDBRANCH  13  15
ENDBRANCH  12  13
ENDBRANCH   9  12
ENDBRANCH   1   9
TORSDOF 8
ENDMDL
MODEL      734
REMARK  Name = ZINC001167237710
REMARK                            x       y       z     vdW  Elec       q    Type
REMARK                         _______ _______ _______ _____ _____    ______ ____
ROOT
ATOM      1  C   LIG    1        1.676  -3.954  -2.598  0.00  0.00    +0.250 C 
ENDROOT
BRANCH   1   2
ATOM      2  N   LIG    1        2.398  -4.578  -3.715  0.00  0.00    -0.390 N 
ATOM      3  C   LIG    1        3.844  -4.402  -3.522  0.00  0.00    +0.310 C 
ATOM      4  H   LIG    1        2.119  -4.143  -4.581  0.00  0.00    +0.420 HD
BRANCH   2   5
ATOM      5  C   LIG    1        2.082  -6.012  -3.763  0.00  0.00    +0.250 C 
BRANCH   5   6
ATOM      6  C   LIG    1        2.719  -6.633  -5.007  0.00  0.00    -0.030 C 
ATOM      7  C   LIG    1        2.072  -6.042  -6.261  0.00  0.00    +0.030 C 
ATOM      8  C   LIG    1        2.503  -8.148  -4.988  0.00  0.00    +0.070 C 
ENDBRANCH   5   6
ENDBRANCH   2   5
ENDBRANCH   1   2
BRANCH   1   9
ATOM      9  C   LIG    1        1.907  -2.442  -2.623  0.00  0.00    -0.010 C 
BRANCH   9  10
ATOM     10  C   LIG    1        1.282  -1.852  -3.889  0.00  0.00    +0.000 C 
ATOM     11  C   LIG    1        1.615  -0.361  -3.974  0.00  0.00    +0.040 C 
ENDBRANCH   9  10
BRANCH   9  12
ATOM     12  C   LIG    1        1.259  -1.807  -1.391  0.00  0.00    +0.040 C 
BRANCH  12  13
ATOM     13  C   LIG    1        1.967  -2.304  -0.129  0.00  0.00    +0.000 C 
BRANCH  13  15
ATOM     14  C   LIG    1        2.107  -2.078   2.355  0.00  0.00    +0.000 C 
ATOM     15  C   LIG    1        1.399  -1.581   1.094  0.00  0.00    +0.000 C 
ENDBRANCH  13  15
ENDBRANCH  12  13
ENDBRANCH   9  12
ENDBRANCH   1   9
TORSDOF 8
ENDMDL
MODEL      735
REMARK  Name = ZINC001167237617
REMARK                            x       y       z     vdW  Elec       q    Type
REMARK                         _______ _______ _______ _____ _____    ______ ____
ROOT
ATOM      1  C   LIG    1       -2.599  -3.656  -0.306  0.00  0.00    +0.240 C 
ENDROOT
BRANCH   1   2
ATOM      2  N   LIG    1       -3.834  -4.452  -0.291  0.00  0.00    -0.390 N 
ATOM      3  H   LIG    1       -4.425  -4.142   0.466  0.00  0.00    +0.420 HD
BRANCH   2   4
ATOM      4  C   LIG    1       -4.542  -4.282  -1.567  0.00  0.00    +0.240 C 
ATOM      5  C   LIG    1       -5.901  -4.982  -1.493  0.00  0.00    +0.080 C 
ENDBRANCH   2   4
BRANCH   2   6
ATOM      6  C   LIG    1       -3.500  -5.870  -0.101  0.00  0.00    +0.240 C 
BRANCH   6   7
ATOM      7  C   LIG    1       -2.902  -6.072   1.292  0.00  0.00    +0.020 C 
ATOM      8  C   LIG    1       -2.474  -7.531   1.458  0.00  0.00    +0.060 C 
ENDBRANCH   6   7
ENDBRANCH   2   6
ENDBRANCH   1   2
BRANCH   1   9
ATOM      9  C   LIG    1       -2.953  -2.169  -0.378  0.00  0.00    -0.020 C 
BRANCH   9  10
ATOM     10  C   LIG    1       -3.685  -1.756   0.901  0.00  0.00    +0.000 C 
ATOM     11  C   LIG    1       -4.154  -0.306   0.774  0.00  0.00    +0.040 C 
ENDBRANCH   9  10
BRANCH   9  12
ATOM     12  C   LIG    1       -1.670  -1.347  -0.519  0.00  0.00    +0.040 C 
BRANCH  12  13
ATOM     13  C   LIG    1       -1.007  -1.663  -1.861  0.00  0.00    +0.000 C 
BRANCH  13  15
ATOM     14  C   LIG    1        0.862  -1.058  -3.406  0.00  0.00    +0.000 C 
ATOM     15  C   LIG    1        0.199  -0.743  -2.064  0.00  0.00    +0.000 C 
ENDBRANCH  13  15
ENDBRANCH  12  13
ENDBRANCH   9  12
ENDBRANCH   1   9
TORSDOF 9
ENDMDL
MODEL      736
REMARK  Name = ZINC001167237346
REMARK                            x       y       z     vdW  Elec       q    Type
REMARK                         _______ _______ _______ _____ _____    ______ ____
ROOT
ATOM      1  C   LIG    1        2.419  -2.780  -4.009  0.00  0.00    +0.250 C 
ENDROOT
BRANCH   1   2
ATOM      2  N   LIG    1        1.438  -1.841  -3.449  0.00  0.00    -0.390 N 
ATOM      3  H   LIG    1        0.509  -2.215  -3.567  0.00  0.00    +0.420 HD
BRANCH   2   4
ATOM      4  C   LIG    1        1.540  -0.552  -4.147  0.00  0.00    +0.240 C 
ATOM      5  C   LIG    1        1.155  -0.736  -5.616  0.00  0.00    +0.080 C 
ENDBRANCH   2   4
BRANCH   2   6
ATOM      6  C   LIG    1        1.709  -1.645  -2.018  0.00  0.00    +0.240 C 
BRANCH   6   8
ATOM      7  C   LIG    1        0.898  -0.563   0.082  0.00  0.00    +0.060 C 
ATOM      8  C   LIG    1        0.616  -0.766  -1.408  0.00  0.00    +0.020 C 
ENDBRANCH   6   8
ENDBRANCH   2   6
ENDBRANCH   1   2
BRANCH   1   9
ATOM      9  C   LIG    1        2.208  -4.165  -3.393  0.00  0.00    -0.020 C 
ATOM     10  C   LIG    1        0.849  -4.715  -3.830  0.00  0.00    +0.040 C 
BRANCH   9  11
ATOM     11  C   LIG    1        3.316  -5.108  -3.867  0.00  0.00    +0.050 C 
BRANCH  11  12
ATOM     12  C   LIG    1        3.318  -6.369  -3.000  0.00  0.00    -0.070 C 
ATOM     13  C   LIG    1        3.480  -5.977  -1.530  0.00  0.00    +0.020 C 
ATOM     14  C   LIG    1        4.479  -7.273  -3.418  0.00  0.00    +0.030 C 
ATOM     15  C   LIG    1        1.996  -7.117  -3.185  0.00  0.00    +0.030 C 
ENDBRANCH  11  12
ENDBRANCH   9  11
ENDBRANCH   1   9
TORSDOF 7
ENDMDL
MODEL      737
REMARK  Name = ZINC000775715041
REMARK                            x       y       z     vdW  Elec       q    Type
REMARK                         _______ _______ _______ _____ _____    ______ ____
ROOT
ATOM      1  N   LIG    1       -2.724  -4.102  -0.235  0.00  0.00    -0.380 N 
ATOM      2  H   LIG    1       -2.054  -4.305  -0.962  0.00  0.00    +0.420 HD
ENDROOT
BRANCH   1   3
ATOM      3  C   LIG    1       -4.030  -4.664  -0.603  0.00  0.00    +0.150 C 
ATOM      4  C   LIG    1       -4.287  -4.685  -2.119  0.00  0.00    +0.050 C 
ATOM      5  C   LIG    1       -4.927  -6.068  -1.912  0.00  0.00    +0.060 C 
ATOM      6  C   LIG    1       -4.046  -6.201  -0.659  0.00  0.00    +0.050 C 
ENDBRANCH   1   3
BRANCH   1   7
ATOM      7  C   LIG    1       -2.271  -4.701   1.028  0.00  0.00    +0.160 C 
ATOM      8  C   LIG    1       -3.222  -4.293   2.155  0.00  0.00    +0.080 C 
ATOM      9  C   LIG    1       -0.859  -4.207   1.349  0.00  0.00    +0.090 C 
ENDBRANCH   1   7
BRANCH   1  10
ATOM     10  C   LIG    1       -2.845  -2.647  -0.072  0.00  0.00    +0.250 C 
BRANCH  10  11
ATOM     11  C   LIG    1       -3.152  -2.006  -1.426  0.00  0.00    -0.020 C 
ATOM     12  C   LIG    1       -1.983  -2.250  -2.383  0.00  0.00    +0.040 C 
BRANCH  11  13
ATOM     13  C   LIG    1       -3.356  -0.501  -1.243  0.00  0.00    +0.030 C 
BRANCH  13  15
ATOM     14  C   LIG    1       -3.990   1.626  -2.391  0.00  0.00    +0.020 C 
ATOM     15  C   LIG    1       -3.786   0.121  -2.574  0.00  0.00    +0.000 C 
ENDBRANCH  13  15
ENDBRANCH  11  13
ENDBRANCH  10  11
ENDBRANCH   1  10
TORSDOF 6
ENDMDL
MODEL      738
REMARK  Name = ZINC001166997495
REMARK                            x       y       z     vdW  Elec       q    Type
REMARK                         _______ _______ _______ _____ _____    ______ ____
ROOT
ATOM      1  N   LIG    1        1.592  -2.237  -2.492  0.00  0.00    -0.380 N 
ATOM      2  H   LIG    1        1.390  -1.834  -3.395  0.00  0.00    +0.420 HD
ENDROOT
BRANCH   1   3
ATOM      3  C   LIG    1        1.338  -3.683  -2.534  0.00  0.00    +0.160 C 
ATOM      4  C   LIG    1        1.509  -4.271  -1.131  0.00  0.00    +0.040 C 
ATOM      5  C   LIG    1        1.245  -5.778  -1.175  0.00  0.00    +0.030 C 
ATOM      6  C   LIG    1       -0.183  -6.031  -1.664  0.00  0.00    +0.020 C 
ATOM      7  C   LIG    1       -0.354  -5.443  -3.066  0.00  0.00    +0.030 C 
ATOM      8  C   LIG    1       -0.089  -3.937  -3.022  0.00  0.00    +0.040 C 
ENDBRANCH   1   3
BRANCH   1   9
ATOM      9  C   LIG    1        3.000  -1.996  -2.151  0.00  0.00    +0.240 C 
ATOM     10  C   LIG    1        3.894  -2.515  -3.280  0.00  0.00    +0.080 C 
ENDBRANCH   1   9
BRANCH   1  11
ATOM     11  C   LIG    1        0.730  -1.617  -1.476  0.00  0.00    +0.240 C 
BRANCH  11  12
ATOM     12  C   LIG    1        0.903  -0.098  -1.518  0.00  0.00    -0.030 C 
ATOM     13  C   LIG    1        0.396   0.436  -2.860  0.00  0.00    +0.040 C 
BRANCH  12  15
ATOM     14  C   LIG    1        0.373   2.044  -0.346  0.00  0.00    +0.030 C 
ATOM     15  C   LIG    1        0.102   0.538  -0.381  0.00  0.00    +0.020 C 
ENDBRANCH  12  15
ENDBRANCH  11  12
ENDBRANCH   1  11
TORSDOF 5
ENDMDL
MODEL      739
REMARK  Name = ZINC001167157349
REMARK                            x       y       z     vdW  Elec       q    Type
REMARK                         _______ _______ _______ _____ _____    ______ ____
ROOT
ATOM      1  C   LIG    1       -1.433  -0.534   0.013  0.00  0.00    +0.170 C 
ATOM      2  C   LIG    1       -1.415  -2.058  -0.123  0.00  0.00    +0.060 C 
ATOM      3  C   LIG    1       -2.853  -2.583  -0.112  0.00  0.00    +0.030 C 
ATOM      4  C   LIG    1       -3.545  -2.123   1.175  0.00  0.00    +0.050 C 
ATOM      5  C   LIG    1       -3.484  -0.597   1.263  0.00  0.00    +0.250 C 
ATOM      6  N   LIG    1       -2.083  -0.160   1.275  0.00  0.00    -0.380 N 
ATOM      7  H   LIG    1       -2.045   0.843   1.387  0.00  0.00    +0.420 HD
ENDROOT
BRANCH   1   9
ATOM      8  C   LIG    1       -0.019   1.526   0.010  0.00  0.00    +0.030 C 
ATOM      9  C   LIG    1        0.002  -0.004   0.002  0.00  0.00    +0.050 C 
ENDBRANCH   1   9
BRANCH   6  10
ATOM     10  C   LIG    1       -1.381  -0.802   2.394  0.00  0.00    +0.240 C 
BRANCH  10  11
ATOM     11  C   LIG    1       -1.970  -0.309   3.717  0.00  0.00    +0.020 C 
BRANCH  11  12
ATOM     12  C   LIG    1       -1.239  -0.978   4.882  0.00  0.00    +0.030 C 
BRANCH  12  13
ATOM     13  C   LIG    1       -1.829  -0.486   6.205  0.00  0.00    -0.030 C 
ATOM     14  C   LIG    1       -1.018  -1.057   7.370  0.00  0.00    +0.030 C 
ATOM     15  C   LIG    1       -3.283  -0.949   6.319  0.00  0.00    +0.020 C 
ENDBRANCH  12  13
ENDBRANCH  11  12
ENDBRANCH  10  11
ENDBRANCH   6  10
TORSDOF 5
ENDMDL
MODEL      740
REMARK  Name = ZINC001167237616
REMARK                            x       y       z     vdW  Elec       q    Type
REMARK                         _______ _______ _______ _____ _____    ______ ____
ROOT
ATOM      1  C   LIG    1       -2.980  -3.398   0.538  0.00  0.00    +0.250 C 
ENDROOT
BRANCH   1   2
ATOM      2  N   LIG    1       -4.303  -4.032   0.479  0.00  0.00    -0.390 N 
ATOM      3  H   LIG    1       -4.927  -3.571   1.124  0.00  0.00    +0.420 HD
BRANCH   2   4
ATOM      4  C   LIG    1       -4.839  -3.921  -0.885  0.00  0.00    +0.240 C 
ATOM      5  C   LIG    1       -3.948  -4.708  -1.848  0.00  0.00    +0.080 C 
ENDBRANCH   2   4
BRANCH   2   6
ATOM      6  C   LIG    1       -4.184  -5.450   0.844  0.00  0.00    +0.240 C 
BRANCH   6   7
ATOM      7  C   LIG    1       -5.577  -6.078   0.915  0.00  0.00    +0.020 C 
ATOM      8  C   LIG    1       -5.462  -7.518   1.419  0.00  0.00    +0.060 C 
ENDBRANCH   6   7
ENDBRANCH   2   6
ENDBRANCH   1   2
BRANCH   1   9
ATOM      9  C   LIG    1       -3.124  -1.893   0.303  0.00  0.00    -0.020 C 
BRANCH   9  10
ATOM     10  C   LIG    1       -1.739  -1.244   0.286  0.00  0.00    +0.040 C 
ATOM     11  C   LIG    1       -0.954  -1.750  -0.926  0.00  0.00    +0.020 C 
ENDBRANCH   9  10
BRANCH   9  12
ATOM     12  C   LIG    1       -3.961  -1.280   1.428  0.00  0.00    +0.000 C 
BRANCH  12  13
ATOM     13  C   LIG    1       -4.211   0.200   1.130  0.00  0.00    +0.020 C 
BRANCH  13  15
ATOM     14  C   LIG    1       -5.297   2.293   1.956  0.00  0.00    +0.020 C 
ATOM     15  C   LIG    1       -5.047   0.813   2.255  0.00  0.00    -0.010 C 
ENDBRANCH  13  15
ENDBRANCH  12  13
ENDBRANCH   9  12
ENDBRANCH   1   9
TORSDOF 9
ENDMDL
MODEL      741
REMARK  Name = ZINC000775715044
REMARK                            x       y       z     vdW  Elec       q    Type
REMARK                         _______ _______ _______ _____ _____    ______ ____
ROOT
ATOM      1  N   LIG    1       -2.389  -3.982   0.039  0.00  0.00    -0.380 N 
ATOM      2  H   LIG    1       -1.602  -4.241  -0.537  0.00  0.00    +0.420 HD
ENDROOT
BRANCH   1   3
ATOM      3  C   LIG    1       -3.617  -4.561  -0.521  0.00  0.00    +0.150 C 
ATOM      4  C   LIG    1       -3.729  -4.410  -2.048  0.00  0.00    +0.050 C 
ATOM      5  C   LIG    1       -4.297  -5.838  -2.069  0.00  0.00    +0.060 C 
ATOM      6  C   LIG    1       -3.532  -6.078  -0.757  0.00  0.00    +0.060 C 
ENDBRANCH   1   3
BRANCH   1   7
ATOM      7  C   LIG    1       -2.185  -4.491   1.402  0.00  0.00    +0.160 C 
ATOM      8  C   LIG    1       -1.914  -5.996   1.350  0.00  0.00    +0.080 C 
ATOM      9  C   LIG    1       -3.440  -4.228   2.237  0.00  0.00    +0.080 C 
ENDBRANCH   1   7
BRANCH   1  10
ATOM     10  C   LIG    1       -2.509  -2.519   0.075  0.00  0.00    +0.250 C 
BRANCH  10  11
ATOM     11  C   LIG    1       -1.196  -1.911   0.573  0.00  0.00    -0.030 C 
ATOM     12  C   LIG    1       -0.088  -2.188  -0.446  0.00  0.00    +0.040 C 
BRANCH  11  13
ATOM     13  C   LIG    1       -1.365  -0.400   0.744  0.00  0.00    +0.030 C 
BRANCH  13  15
ATOM     14  C   LIG    1       -0.264   1.700   1.529  0.00  0.00    +0.020 C 
ATOM     15  C   LIG    1       -0.094   0.189   1.358  0.00  0.00    +0.000 C 
ENDBRANCH  13  15
ENDBRANCH  11  13
ENDBRANCH  10  11
ENDBRANCH   1  10
TORSDOF 6
ENDMDL
MODEL      742
REMARK  Name = ZINC001167237345
REMARK                            x       y       z     vdW  Elec       q    Type
REMARK                         _______ _______ _______ _____ _____    ______ ____
ROOT
ATOM      1  C   LIG    1        1.474  -2.598  -2.997  0.00  0.00    +0.250 C 
ENDROOT
BRANCH   1   2
ATOM      2  N   LIG    1        1.041  -2.070  -1.696  0.00  0.00    -0.380 N 
ATOM      3  H   LIG    1        1.676  -2.385  -0.978  0.00  0.00    +0.420 HD
BRANCH   2   4
ATOM      4  C   LIG    1       -0.314  -2.553  -1.398  0.00  0.00    +0.240 C 
ATOM      5  C   LIG    1       -1.274  -2.089  -2.496  0.00  0.00    +0.080 C 
ENDBRANCH   2   4
BRANCH   2   6
ATOM      6  C   LIG    1        1.040  -0.602  -1.740  0.00  0.00    +0.240 C 
BRANCH   6   8
ATOM      7  C   LIG    1        0.708   1.478  -0.396  0.00  0.00    +0.060 C 
ATOM      8  C   LIG    1        0.710  -0.051  -0.351  0.00  0.00    +0.020 C 
ENDBRANCH   6   8
ENDBRANCH   2   6
ENDBRANCH   1   2
BRANCH   1   9
ATOM      9  C   LIG    1        1.601  -4.120  -2.913  0.00  0.00    -0.020 C 
ATOM     10  C   LIG    1        2.702  -4.486  -1.915  0.00  0.00    +0.040 C 
BRANCH   9  11
ATOM     11  C   LIG    1        1.956  -4.679  -4.292  0.00  0.00    +0.050 C 
BRANCH  11  12
ATOM     12  C   LIG    1        1.526  -6.146  -4.374  0.00  0.00    -0.070 C 
ATOM     13  C   LIG    1        2.223  -6.944  -3.271  0.00  0.00    +0.020 C 
ATOM     14  C   LIG    1        1.916  -6.715  -5.740  0.00  0.00    +0.030 C 
ATOM     15  C   LIG    1        0.010  -6.243  -4.195  0.00  0.00    +0.020 C 
ENDBRANCH  11  12
ENDBRANCH   9  11
ENDBRANCH   1   9
TORSDOF 7
ENDMDL
MODEL      743
REMARK  Name = ZINC001167237826
REMARK                            x       y       z     vdW  Elec       q    Type
REMARK                         _______ _______ _______ _____ _____    ______ ____
ROOT
ATOM      1  C   LIG    1       -2.772  -2.522  -0.227  0.00  0.00    +0.250 C 
ENDROOT
BRANCH   1   2
ATOM      2  N   LIG    1       -1.414  -2.012   0.004  0.00  0.00    -0.390 N 
ATOM      3  C   LIG    1       -0.920  -2.502   1.297  0.00  0.00    +0.310 C 
ATOM      4  H   LIG    1       -0.804  -2.333  -0.733  0.00  0.00    +0.420 HD
BRANCH   2   5
ATOM      5  C   LIG    1       -1.439  -0.543   0.014  0.00  0.00    +0.250 C 
BRANCH   5   7
ATOM      6  C   LIG    1        0.764  -0.389  -1.155  0.00  0.00    +0.030 C 
ATOM      7  C   LIG    1       -0.008  -0.010   0.110  0.00  0.00    -0.030 C 
ATOM      8  C   LIG    1       -0.039   1.513   0.251  0.00  0.00    +0.070 C 
ENDBRANCH   5   7
ENDBRANCH   2   5
ENDBRANCH   1   2
BRANCH   1   9
ATOM      9  C   LIG    1       -2.728  -4.046  -0.361  0.00  0.00    +0.030 C 
BRANCH   9  10
ATOM     10  C   LIG    1       -4.142  -4.578  -0.602  0.00  0.00    +0.030 C 
BRANCH  10  11
ATOM     11  C   LIG    1       -4.098  -6.101  -0.736  0.00  0.00    -0.010 C 
ATOM     12  C   LIG    1       -3.778  -6.757   0.630  0.00  0.00    +0.010 C 
ATOM     13  C   LIG    1       -4.358  -8.184   0.468  0.00  0.00    +0.010 C 
ATOM     14  C   LIG    1       -5.657  -7.976  -0.338  0.00  0.00    +0.010 C 
ATOM     15  C   LIG    1       -5.492  -6.651  -1.103  0.00  0.00    +0.020 C 
ENDBRANCH  10  11
ENDBRANCH   9  10
ENDBRANCH   1   9
TORSDOF 6
ENDMDL
MODEL      744
REMARK  Name = ZINC001167256138
REMARK                            x       y       z     vdW  Elec       q    Type
REMARK                         _______ _______ _______ _____ _____    ______ ____
ROOT
ATOM      1  N   LIG    1        0.767  -2.305  -1.557  0.00  0.00    -0.390 N 
ATOM      2  H   LIG    1        1.017  -2.546  -0.609  0.00  0.00    +0.420 HD
ENDROOT
BRANCH   1   3
ATOM      3  C   LIG    1        0.174  -0.961  -1.579  0.00  0.00    +0.240 C 
BRANCH   3   5
ATOM      4  C   LIG    1        0.542   1.440  -0.991  0.00  0.00    +0.060 C 
ATOM      5  C   LIG    1        1.127   0.028  -0.904  0.00  0.00    +0.020 C 
ENDBRANCH   3   5
ENDBRANCH   1   3
BRANCH   1   6
ATOM      6  C   LIG    1        1.970  -2.323  -2.400  0.00  0.00    +0.250 C 
BRANCH   6   7
ATOM      7  C   LIG    1        2.663  -3.681  -2.270  0.00  0.00    -0.030 C 
ATOM      8  C   LIG    1        3.144  -3.872  -0.831  0.00  0.00    +0.030 C 
ATOM      9  C   LIG    1        3.861  -3.735  -3.220  0.00  0.00    +0.070 C 
ENDBRANCH   6   7
ENDBRANCH   1   6
BRANCH   1  10
ATOM     10  C   LIG    1       -0.206  -3.278  -2.070  0.00  0.00    +0.240 C 
BRANCH  10  11
ATOM     11  C   LIG    1       -1.391  -3.371  -1.106  0.00  0.00    +0.040 C 
BRANCH  11  12
ATOM     12  C   LIG    1       -2.341  -4.476  -1.572  0.00  0.00    +0.060 C 
BRANCH  12  13
ATOM     13  C   LIG    1       -3.526  -4.569  -0.608  0.00  0.00    -0.060 C 
ATOM     14  C   LIG    1       -4.916  -4.252  -1.164  0.00  0.00    +0.020 C 
ATOM     15  C   LIG    1       -4.535  -5.697  -0.836  0.00  0.00    +0.020 C 
ENDBRANCH  12  13
ENDBRANCH  11  12
ENDBRANCH  10  11
ENDBRANCH   1  10
TORSDOF 8
ENDMDL
MODEL      745
REMARK  Name = ZINC001167378013
REMARK                            x       y       z     vdW  Elec       q    Type
REMARK                         _______ _______ _______ _____ _____    ______ ____
ROOT
ATOM      1  N   LIG    1       -0.747  -2.296   1.515  0.00  0.00    -0.380 N 
ATOM      2  C   LIG    1       -1.490  -1.571   0.512  0.00  0.00    +0.240 C 
ATOM      3  C   LIG    1       -2.718  -0.946   1.194  0.00  0.00    +0.050 C 
ATOM      4  C   LIG    1       -3.840  -1.869   1.308  0.00  0.00    +0.030 C 
ATOM      5  C   LIG    1       -3.462  -3.099   2.171  0.00  0.00    -0.030 C 
ATOM      6  C   LIG    1       -2.589  -4.015   1.355  0.00  0.00    +0.060 C 
ATOM      7  C   LIG    1       -1.085  -3.735   1.516  0.00  0.00    +0.240 C 
ATOM      8  H   LIG    1       -0.957  -1.908   2.423  0.00  0.00    +0.420 HD
ENDROOT
BRANCH   1   9
ATOM      9  C   LIG    1        0.690  -2.142   1.251  0.00  0.00    +0.160 C 
ATOM     10  C   LIG    1        1.029  -2.767  -0.104  0.00  0.00    +0.080 C 
BRANCH   9  11
ATOM     11  C   LIG    1        1.488  -2.843   2.351  0.00  0.00    +0.050 C 
BRANCH  11  13
ATOM     12  C   LIG    1        2.013  -2.862   4.794  0.00  0.00    +0.040 C 
ATOM     13  C   LIG    1        1.266  -2.122   3.682  0.00  0.00    -0.010 C 
ENDBRANCH  11  13
ENDBRANCH   9  11
ENDBRANCH   1   9
BRANCH   5  14
ATOM     14  C   LIG    1       -4.733  -3.840   2.592  0.00  0.00    +0.020 C 
ATOM     15  C   LIG    1       -5.565  -2.943   3.511  0.00  0.00    +0.020 C 
ENDBRANCH   5  14
TORSDOF 4
ENDMDL
MODEL      746
REMARK  Name = ZINC001167378014
REMARK                            x       y       z     vdW  Elec       q    Type
REMARK                         _______ _______ _______ _____ _____    ______ ____
ROOT
ATOM      1  N   LIG    1       -0.668  -2.651   1.482  0.00  0.00    -0.380 N 
ATOM      2  C   LIG    1       -1.553  -2.186   0.439  0.00  0.00    +0.240 C 
ATOM      3  C   LIG    1       -2.952  -1.867   0.994  0.00  0.00    +0.060 C 
ATOM      4  C   LIG    1       -3.435  -2.909   2.022  0.00  0.00    +0.020 C 
ATOM      5  C   LIG    1       -3.130  -4.328   1.621  0.00  0.00    -0.020 C 
ATOM      6  C   LIG    1       -1.752  -4.736   2.197  0.00  0.00    +0.060 C 
ATOM      7  C   LIG    1       -0.664  -4.124   1.442  0.00  0.00    +0.250 C 
ATOM      8  H   LIG    1       -1.002  -2.334   2.381  0.00  0.00    +0.420 HD
ENDROOT
BRANCH   1   9
ATOM      9  C   LIG    1        0.689  -2.142   1.248  0.00  0.00    +0.170 C 
ATOM     10  C   LIG    1        1.236  -2.727  -0.056  0.00  0.00    +0.080 C 
BRANCH   9  11
ATOM     11  C   LIG    1        1.595  -2.553   2.411  0.00  0.00    +0.050 C 
BRANCH  11  13
ATOM     12  C   LIG    1        1.946  -2.381   4.878  0.00  0.00    +0.040 C 
ATOM     13  C   LIG    1        1.106  -1.887   3.699  0.00  0.00    -0.010 C 
ENDBRANCH  11  13
ENDBRANCH   9  11
ENDBRANCH   1   9
BRANCH   5  14
ATOM     14  C   LIG    1       -4.212  -5.259   2.172  0.00  0.00    +0.020 C 
ATOM     15  C   LIG    1       -5.552  -4.931   1.512  0.00  0.00    +0.020 C 
ENDBRANCH   5  14
TORSDOF 4
ENDMDL
MODEL      747
REMARK  Name = ZINC001167425722
REMARK                            x       y       z     vdW  Elec       q    Type
REMARK                         _______ _______ _______ _____ _____    ______ ____
ROOT
ATOM      1  N   LIG    1       -0.089  -0.195  -2.578  0.00  0.00    -0.380 N 
ATOM      2  C   LIG    1       -0.316   1.228  -2.685  0.00  0.00    +0.240 C 
ATOM      3  C   LIG    1       -1.739   1.531  -3.185  0.00  0.00    +0.060 C 
ATOM      4  C   LIG    1       -2.188   0.579  -4.312  0.00  0.00    +0.020 C 
ATOM      5  C   LIG    1       -1.111   0.315  -5.332  0.00  0.00    -0.010 C 
ATOM      6  C   LIG    1       -0.305  -0.937  -4.909  0.00  0.00    +0.050 C 
ATOM      7  C   LIG    1        0.599  -0.633  -3.805  0.00  0.00    +0.250 C 
ATOM      8  H   LIG    1       -0.972  -0.676  -2.490  0.00  0.00    +0.420 HD
ENDROOT
BRANCH   5   9
ATOM      9  C   LIG    1       -1.752   0.073  -6.700  0.00  0.00    -0.010 C 
ATOM     10  C   LIG    1       -0.671  -0.323  -7.707  0.00  0.00    +0.020 C 
ATOM     11  C   LIG    1       -2.444   1.353  -7.172  0.00  0.00    +0.020 C 
ENDBRANCH   5   9
BRANCH   1  12
ATOM     12  C   LIG    1        0.751  -0.478  -1.407  0.00  0.00    +0.170 C 
ATOM     13  C   LIG    1        2.131   0.152  -1.605  0.00  0.00    +0.080 C 
BRANCH  12  15
ATOM     14  C   LIG    1       -0.466  -2.611  -0.943  0.00  0.00    +0.030 C 
ATOM     15  C   LIG    1        0.901  -1.992  -1.242  0.00  0.00    +0.050 C 
ENDBRANCH  12  15
ENDBRANCH   1  12
TORSDOF 3
ENDMDL
MODEL      748
REMARK  Name = ZINC001167378015
REMARK                            x       y       z     vdW  Elec       q    Type
REMARK                         _______ _______ _______ _____ _____    ______ ____
ROOT
ATOM      1  N   LIG    1        1.225  -2.551   0.063  0.00  0.00    -0.380 N 
ATOM      2  C   LIG    1        1.182  -3.988   0.189  0.00  0.00    +0.240 C 
ATOM      3  C   LIG    1        2.428  -4.560  -0.508  0.00  0.00    +0.050 C 
ATOM      4  C   LIG    1        2.259  -4.715  -1.947  0.00  0.00    +0.030 C 
ATOM      5  C   LIG    1        1.989  -3.349  -2.626  0.00  0.00    -0.030 C 
ATOM      6  C   LIG    1        0.568  -2.939  -2.345  0.00  0.00    +0.060 C 
ATOM      7  C   LIG    1        0.417  -2.075  -1.080  0.00  0.00    +0.250 C 
ATOM      8  H   LIG    1        2.182  -2.262  -0.069  0.00  0.00    +0.420 HD
ENDROOT
BRANCH   1   9
ATOM      9  C   LIG    1        0.709  -1.948   1.298  0.00  0.00    +0.160 C 
ATOM     10  C   LIG    1       -0.690  -2.496   1.588  0.00  0.00    +0.080 C 
BRANCH   9  11
ATOM     11  C   LIG    1        1.641  -2.290   2.462  0.00  0.00    +0.050 C 
BRANCH  11  13
ATOM     12  C   LIG    1        3.910  -1.900   3.433  0.00  0.00    +0.030 C 
ATOM     13  C   LIG    1        3.016  -1.667   2.213  0.00  0.00    -0.000 C 
ENDBRANCH  11  13
ENDBRANCH   9  11
ENDBRANCH   1   9
BRANCH   5  14
ATOM     14  C   LIG    1        2.199  -3.477  -4.136  0.00  0.00    +0.020 C 
ATOM     15  C   LIG    1        3.670  -3.786  -4.422  0.00  0.00    +0.020 C 
ENDBRANCH   5  14
TORSDOF 4
ENDMDL
MODEL      749
REMARK  Name = ZINC001167425720
REMARK                            x       y       z     vdW  Elec       q    Type
REMARK                         _______ _______ _______ _____ _____    ______ ____
ROOT
ATOM      1  N   LIG    1       -0.308  -0.207  -2.260  0.00  0.00    -0.380 N 
ATOM      2  C   LIG    1       -0.429   1.226  -2.139  0.00  0.00    +0.240 C 
ATOM      3  C   LIG    1       -1.889   1.603  -2.434  0.00  0.00    +0.050 C 
ATOM      4  C   LIG    1       -2.170   1.734  -3.859  0.00  0.00    +0.040 C 
ATOM      5  C   LIG    1       -1.925   0.395  -4.599  0.00  0.00    -0.020 C 
ATOM      6  C   LIG    1       -0.442   0.188  -4.750  0.00  0.00    +0.060 C 
ATOM      7  C   LIG    1        0.189  -0.607  -3.594  0.00  0.00    +0.230 C 
ATOM      8  H   LIG    1       -1.213  -0.627  -2.107  0.00  0.00    +0.420 HD
ENDROOT
BRANCH   5   9
ATOM      9  C   LIG    1       -2.582   0.445  -5.980  0.00  0.00    -0.010 C 
ATOM     10  C   LIG    1       -4.066   0.786  -5.827  0.00  0.00    +0.020 C 
ATOM     11  C   LIG    1       -2.439  -0.917  -6.662  0.00  0.00    +0.020 C 
ENDBRANCH   5   9
BRANCH   1  12
ATOM     12  C   LIG    1        0.624  -0.697  -1.235  0.00  0.00    +0.160 C 
ATOM     13  C   LIG    1        2.005  -0.080  -1.466  0.00  0.00    +0.080 C 
BRANCH  12  15
ATOM     14  C   LIG    1       -0.618  -2.844  -0.935  0.00  0.00    +0.030 C 
ATOM     15  C   LIG    1        0.724  -2.221  -1.324  0.00  0.00    +0.050 C 
ENDBRANCH  12  15
ENDBRANCH   1  12
TORSDOF 3
ENDMDL
MODEL      750
REMARK  Name = ZINC001167563709
REMARK                            x       y       z     vdW  Elec       q    Type
REMARK                         _______ _______ _______ _____ _____    ______ ____
ROOT
ATOM      1  N   LIG    1        2.522  -1.879  -2.854  0.00  0.00    -0.390 N 
ATOM      2  H   LIG    1        2.431  -1.341  -3.703  0.00  0.00    +0.420 HD
ENDROOT
BRANCH   1   3
ATOM      3  C   LIG    1        3.945  -2.092  -2.558  0.00  0.00    +0.240 C 
ATOM      4  C   LIG    1        4.672  -0.745  -2.553  0.00  0.00    +0.080 C 
ENDBRANCH   1   3
BRANCH   1   5
ATOM      5  C   LIG    1        1.895  -1.150  -1.743  0.00  0.00    +0.250 C 
BRANCH   5   6
ATOM      6  C   LIG    1        0.460  -0.779  -2.122  0.00  0.00    -0.030 C 
ATOM      7  C   LIG    1        0.480   0.226  -3.275  0.00  0.00    +0.040 C 
BRANCH   6   9
ATOM      8  C   LIG    1       -1.712   0.101  -1.254  0.00  0.00    +0.030 C 
ATOM      9  C   LIG    1       -0.242  -0.155  -0.914  0.00  0.00    +0.020 C 
ENDBRANCH   6   9
ENDBRANCH   5   6
ENDBRANCH   1   5
BRANCH   1  10
ATOM     10  C   LIG    1        1.857  -3.178  -3.023  0.00  0.00    +0.250 C 
BRANCH  10  11
ATOM     11  C   LIG    1        2.408  -3.873  -4.270  0.00  0.00    +0.070 C 
BRANCH  11  12
ATOM     12  C   LIG    1        1.638  -5.145  -4.518  0.00  0.00    -0.080 C 
ATOM     13  C   LIG    1        0.977  -5.303  -5.638  0.00  0.00    -0.080 C 
ATOM     14  C   LIG    1        0.316  -6.623  -5.942  0.00  0.00    +0.090 C 
ATOM     15  C   LIG    1        0.877  -4.165  -6.621  0.00  0.00    +0.080 C 
ENDBRANCH  11  12
ENDBRANCH  10  11
ENDBRANCH   1  10
TORSDOF 7
ENDMDL
MODEL      751
REMARK  Name = ZINC001167563710
REMARK                            x       y       z     vdW  Elec       q    Type
REMARK                         _______ _______ _______ _____ _____    ______ ____
ROOT
ATOM      1  N   LIG    1        2.134  -3.555  -2.104  0.00  0.00    -0.390 N 
ATOM      2  H   LIG    1        2.027  -3.329  -3.082  0.00  0.00    +0.420 HD
ENDROOT
BRANCH   1   3
ATOM      3  C   LIG    1        3.556  -3.772  -1.805  0.00  0.00    +0.240 C 
ATOM      4  C   LIG    1        4.128  -4.810  -2.772  0.00  0.00    +0.080 C 
ENDBRANCH   1   3
BRANCH   1   5
ATOM      5  C   LIG    1        1.625  -2.446  -1.286  0.00  0.00    +0.250 C 
BRANCH   5   6
ATOM      6  C   LIG    1        2.327  -1.148  -1.693  0.00  0.00    -0.030 C 
ATOM      7  C   LIG    1        1.951  -0.795  -3.133  0.00  0.00    +0.040 C 
BRANCH   6   9
ATOM      8  C   LIG    1        2.683   1.249  -1.085  0.00  0.00    +0.030 C 
ATOM      9  C   LIG    1        1.889  -0.018  -0.759  0.00  0.00    +0.020 C 
ENDBRANCH   6   9
ENDBRANCH   5   6
ENDBRANCH   1   5
BRANCH   1  10
ATOM     10  C   LIG    1        1.377  -4.776  -1.799  0.00  0.00    +0.250 C 
BRANCH  10  11
ATOM     11  C   LIG    1       -0.078  -4.598  -2.237  0.00  0.00    +0.070 C 
BRANCH  11  12
ATOM     12  C   LIG    1       -0.821  -5.895  -2.050  0.00  0.00    -0.080 C 
ATOM     13  C   LIG    1       -1.480  -6.422  -3.052  0.00  0.00    -0.080 C 
ATOM     14  C   LIG    1       -2.109  -7.784  -2.907  0.00  0.00    +0.090 C 
ATOM     15  C   LIG    1       -1.611  -5.667  -4.349  0.00  0.00    +0.070 C 
ENDBRANCH  11  12
ENDBRANCH  10  11
ENDBRANCH   1  10
TORSDOF 7
ENDMDL
MODEL      752
REMARK  Name = ZINC001167425727
REMARK                            x       y       z     vdW  Elec       q    Type
REMARK                         _______ _______ _______ _____ _____    ______ ____
ROOT
ATOM      1  N   LIG    1        1.759   0.216  -1.429  0.00  0.00    -0.380 N 
ATOM      2  C   LIG    1        2.380  -0.155  -2.680  0.00  0.00    +0.240 C 
ATOM      3  C   LIG    1        3.859  -0.527  -2.481  0.00  0.00    +0.060 C 
ATOM      4  C   LIG    1        4.581   0.415  -1.498  0.00  0.00    +0.020 C 
ATOM      5  C   LIG    1        4.228   1.866  -1.695  0.00  0.00    -0.010 C 
ATOM      6  C   LIG    1        3.022   2.224  -0.793  0.00  0.00    +0.050 C 
ATOM      7  C   LIG    1        1.780   1.687  -1.337  0.00  0.00    +0.260 C 
ATOM      8  H   LIG    1        2.276  -0.182  -0.659  0.00  0.00    +0.420 HD
ENDROOT
BRANCH   5   9
ATOM      9  C   LIG    1        5.427   2.740  -1.318  0.00  0.00    -0.010 C 
ATOM     10  C   LIG    1        5.030   4.215  -1.406  0.00  0.00    +0.020 C 
ATOM     11  C   LIG    1        6.582   2.464  -2.283  0.00  0.00    +0.020 C 
ENDBRANCH   5   9
BRANCH   1  12
ATOM     12  C   LIG    1        0.372  -0.265  -1.399  0.00  0.00    +0.170 C 
ATOM     13  C   LIG    1       -0.358   0.203  -2.659  0.00  0.00    +0.080 C 
BRANCH  12  15
ATOM     14  C   LIG    1        1.028  -2.261  -0.047  0.00  0.00    +0.020 C 
ATOM     15  C   LIG    1        0.363  -1.794  -1.343  0.00  0.00    +0.050 C 
ENDBRANCH  12  15
ENDBRANCH   1  12
TORSDOF 3
ENDMDL
MODEL      753
REMARK  Name = ZINC001167378016
REMARK                            x       y       z     vdW  Elec       q    Type
REMARK                         _______ _______ _______ _____ _____    ______ ____
ROOT
ATOM      1  N   LIG    1        1.386  -2.425   0.085  0.00  0.00    -0.380 N 
ATOM      2  C   LIG    1        1.397  -3.870   0.066  0.00  0.00    +0.240 C 
ATOM      3  C   LIG    1        2.710  -4.410  -0.527  0.00  0.00    +0.060 C 
ATOM      4  C   LIG    1        3.183  -3.607  -1.754  0.00  0.00    +0.020 C 
ATOM      5  C   LIG    1        2.065  -3.250  -2.699  0.00  0.00    -0.020 C 
ATOM      6  C   LIG    1        1.488  -1.869  -2.305  0.00  0.00    +0.060 C 
ATOM      7  C   LIG    1        0.656  -1.967  -1.110  0.00  0.00    +0.260 C 
ATOM      8  H   LIG    1        2.332  -2.075   0.063  0.00  0.00    +0.420 HD
ENDROOT
BRANCH   1   9
ATOM      9  C   LIG    1        0.707  -1.948   1.297  0.00  0.00    +0.170 C 
ATOM     10  C   LIG    1       -0.665  -2.616   1.409  0.00  0.00    +0.080 C 
BRANCH   9  11
ATOM     11  C   LIG    1        1.548  -2.301   2.525  0.00  0.00    +0.050 C 
BRANCH  11  13
ATOM     12  C   LIG    1        3.681  -1.824   3.735  0.00  0.00    +0.030 C 
ATOM     13  C   LIG    1        2.892  -1.573   2.449  0.00  0.00    -0.000 C 
ENDBRANCH  11  13
ENDBRANCH   9  11
ENDBRANCH   1   9
BRANCH   5  14
ATOM     14  C   LIG    1        2.604  -3.191  -4.130  0.00  0.00    +0.020 C 
ATOM     15  C   LIG    1        3.065  -4.585  -4.559  0.00  0.00    +0.020 C 
ENDBRANCH   5  14
TORSDOF 4
ENDMDL
MODEL      754
REMARK  Name = ZINC001204850244
REMARK                            x       y       z     vdW  Elec       q    Type
REMARK                         _______ _______ _______ _____ _____    ______ ____
ROOT
ATOM      1  N   LIG    1       -3.017  -3.994   0.126  0.00  0.00    -0.380 N 
ATOM      2  C   LIG    1       -2.201  -4.845   1.002  0.00  0.00    +0.310 C 
ATOM      3  H   LIG    1       -2.529  -3.840  -0.744  0.00  0.00    +0.420 HD
ENDROOT
BRANCH   1   4
ATOM      4  C   LIG    1       -4.300  -4.656  -0.143  0.00  0.00    +0.170 C 
ATOM      5  C   LIG    1       -5.296  -4.307   0.965  0.00  0.00    +0.090 C 
BRANCH   4   6
ATOM      6  C   LIG    1       -4.848  -4.179  -1.490  0.00  0.00    -0.080 C 
ATOM      7  C   LIG    1       -5.071  -2.666  -1.443  0.00  0.00    +0.050 C 
ATOM      8  C   LIG    1       -6.176  -4.882  -1.779  0.00  0.00    +0.070 C 
ATOM      9  C   LIG    1       -3.844  -4.512  -2.595  0.00  0.00    +0.060 C 
ENDBRANCH   4   6
ENDBRANCH   1   4
BRANCH   1  10
ATOM     10  C   LIG    1       -3.260  -2.704   0.785  0.00  0.00    +0.230 C 
BRANCH  10  11
ATOM     11  C   LIG    1       -1.939  -1.945   0.923  0.00  0.00    +0.020 C 
BRANCH  11  12
ATOM     12  C   LIG    1       -2.192  -0.601   1.610  0.00  0.00    +0.030 C 
BRANCH  12  14
ATOM     13  C   LIG    1       -1.141   1.551   2.321  0.00  0.00    +0.030 C 
ATOM     14  C   LIG    1       -0.871   0.158   1.748  0.00  0.00    -0.030 C 
ATOM     15  C   LIG    1        0.061  -0.608   2.689  0.00  0.00    +0.020 C 
ENDBRANCH  12  14
ENDBRANCH  11  12
ENDBRANCH  10  11
ENDBRANCH   1  10
TORSDOF 6
ENDMDL
MODEL      755
REMARK  Name = ZINC000613408402
REMARK                            x       y       z     vdW  Elec       q    Type
REMARK                         _______ _______ _______ _____ _____    ______ ____
ROOT
ATOM      1  N   LIG    1       -0.112  -4.713  -0.871  0.00  0.00    -0.380 N 
ATOM      2  H   LIG    1       -0.577  -5.564  -1.151  0.00  0.00    +0.420 HD
ENDROOT
BRANCH   1   3
ATOM      3  C   LIG    1        1.078  -5.043  -0.076  0.00  0.00    +0.160 C 
ATOM      4  C   LIG    1        1.873  -3.767   0.207  0.00  0.00    +0.070 C 
ATOM      5  C   LIG    1        1.953  -6.028  -0.853  0.00  0.00    +0.080 C 
ENDBRANCH   1   3
BRANCH   1   6
ATOM      6  C   LIG    1       -1.029  -3.896  -0.065  0.00  0.00    +0.240 C 
BRANCH   6   7
ATOM      7  C   LIG    1       -1.562  -4.730   1.102  0.00  0.00    +0.030 C 
BRANCH   7   8
ATOM      8  C   LIG    1       -2.478  -3.865   1.971  0.00  0.00    +0.020 C 
BRANCH   8  10
ATOM      9  C   LIG    1       -3.927  -3.834   4.006  0.00  0.00    +0.020 C 
ATOM     10  C   LIG    1       -3.011  -4.699   3.137  0.00  0.00    +0.000 C 
ENDBRANCH   8  10
ENDBRANCH   7   8
ENDBRANCH   6   7
ENDBRANCH   1   6
BRANCH   1  11
ATOM     11  C   LIG    1        0.291  -3.960  -2.066  0.00  0.00    +0.290 C 
BRANCH  11  12
ATOM     12  C   LIG    1        1.060  -4.865  -2.994  0.00  0.00    -0.100 C 
ATOM     13  C   LIG    1        2.239  -4.501  -3.436  0.00  0.00    -0.050 C 
ATOM     14  C   LIG    1        3.071  -5.464  -4.242  0.00  0.00    +0.100 C 
ATOM     15  C   LIG    1        2.761  -3.119  -3.138  0.00  0.00    +0.090 C 
ENDBRANCH  11  12
ENDBRANCH   1  11
TORSDOF 7
ENDMDL
MODEL      756
REMARK  Name = ZINC001204850243
REMARK                            x       y       z     vdW  Elec       q    Type
REMARK                         _______ _______ _______ _____ _____    ______ ____
ROOT
ATOM      1  N   LIG    1       -3.659  -4.471  -1.360  0.00  0.00    -0.380 N 
ATOM      2  C   LIG    1       -2.558  -5.334  -0.910  0.00  0.00    +0.300 C 
ATOM      3  H   LIG    1       -3.720  -4.502  -2.367  0.00  0.00    +0.420 HD
ENDROOT
BRANCH   1   4
ATOM      4  C   LIG    1       -4.922  -4.946  -0.779  0.00  0.00    +0.170 C 
ATOM      5  C   LIG    1       -6.095  -4.417  -1.607  0.00  0.00    +0.090 C 
BRANCH   4   6
ATOM      6  C   LIG    1       -5.044  -4.438   0.659  0.00  0.00    -0.080 C 
ATOM      7  C   LIG    1       -3.754  -4.749   1.421  0.00  0.00    +0.050 C 
ATOM      8  C   LIG    1       -6.221  -5.133   1.347  0.00  0.00    +0.070 C 
ATOM      9  C   LIG    1       -5.279  -2.927   0.649  0.00  0.00    +0.050 C 
ENDBRANCH   4   6
ENDBRANCH   1   4
BRANCH   1  10
ATOM     10  C   LIG    1       -3.408  -3.091  -0.926  0.00  0.00    +0.240 C 
BRANCH  10  11
ATOM     11  C   LIG    1       -2.277  -2.490  -1.763  0.00  0.00    +0.020 C 
BRANCH  11  12
ATOM     12  C   LIG    1       -2.016  -1.052  -1.311  0.00  0.00    +0.030 C 
BRANCH  12  14
ATOM     13  C   LIG    1       -0.707   1.023  -1.782  0.00  0.00    +0.030 C 
ATOM     14  C   LIG    1       -0.885  -0.452  -2.148  0.00  0.00    -0.030 C 
ATOM     15  C   LIG    1        0.415  -1.207  -1.866  0.00  0.00    +0.020 C 
ENDBRANCH  12  14
ENDBRANCH  11  12
ENDBRANCH  10  11
ENDBRANCH   1  10
TORSDOF 6
ENDMDL
MODEL      757
REMARK  Name = ZINC001167425724
REMARK                            x       y       z     vdW  Elec       q    Type
REMARK                         _______ _______ _______ _____ _____    ______ ____
ROOT
ATOM      1  N   LIG    1        1.800   0.053  -1.314  0.00  0.00    -0.380 N 
ATOM      2  C   LIG    1        2.273  -0.416  -2.594  0.00  0.00    +0.240 C 
ATOM      3  C   LIG    1        3.783  -0.680  -2.471  0.00  0.00    +0.050 C 
ATOM      4  C   LIG    1        4.590   0.521  -2.651  0.00  0.00    +0.040 C 
ATOM      5  C   LIG    1        4.259   1.579  -1.569  0.00  0.00    -0.020 C 
ATOM      6  C   LIG    1        2.942   2.225  -1.907  0.00  0.00    +0.060 C 
ATOM      7  C   LIG    1        1.732   1.529  -1.259  0.00  0.00    +0.240 C 
ATOM      8  H   LIG    1        2.424  -0.275  -0.593  0.00  0.00    +0.420 HD
ENDROOT
BRANCH   5   9
ATOM      9  C   LIG    1        5.361   2.641  -1.538  0.00  0.00    -0.010 C 
ATOM     10  C   LIG    1        6.717   1.964  -1.331  0.00  0.00    +0.020 C 
ATOM     11  C   LIG    1        5.096   3.616  -0.389  0.00  0.00    +0.020 C 
ENDBRANCH   5   9
BRANCH   1  12
ATOM     12  C   LIG    1        0.459  -0.496  -1.070  0.00  0.00    +0.160 C 
ATOM     13  C   LIG    1       -0.462  -0.131  -2.236  0.00  0.00    +0.080 C 
BRANCH  12  15
ATOM     14  C   LIG    1        1.395  -2.384   0.273  0.00  0.00    +0.020 C 
ATOM     15  C   LIG    1        0.546  -2.019  -0.947  0.00  0.00    +0.050 C 
ENDBRANCH  12  15
ENDBRANCH   1  12
TORSDOF 3
ENDMDL
MODEL      758
REMARK  Name = ZINC001167662855
REMARK                            x       y       z     vdW  Elec       q    Type
REMARK                         _______ _______ _______ _____ _____    ______ ____
ROOT
ATOM      1  C   LIG    1        0.718  -0.497  -1.257  0.00  0.00    +0.000 C 
ATOM      2  C   LIG    1       -0.117  -0.164  -2.515  0.00  0.00    +0.080 C 
ATOM      3  C   LIG    1        0.068  -1.424  -3.397  0.00  0.00    +0.250 C 
ATOM      4  N   LIG    1        0.069  -2.534  -2.409  0.00  0.00    -0.390 N 
ATOM      5  H   LIG    1       -0.876  -2.760  -2.139  0.00  0.00    +0.430 HD
ATOM      6  C   LIG    1        0.830  -2.033  -1.241  0.00  0.00    +0.250 C 
ENDROOT
BRANCH   1   8
ATOM      7  C   LIG    1       -0.019   1.526   0.010  0.00  0.00    +0.030 C 
ATOM      8  C   LIG    1        0.002  -0.004   0.002  0.00  0.00    +0.030 C 
ENDBRANCH   1   8
BRANCH   4   9
ATOM      9  C   LIG    1        0.731  -3.716  -2.977  0.00  0.00    +0.250 C 
BRANCH   9  10
ATOM     10  C   LIG    1       -0.103  -4.260  -4.138  0.00  0.00    +0.030 C 
BRANCH  10  11
ATOM     11  C   LIG    1        0.586  -5.492  -4.728  0.00  0.00    +0.030 C 
BRANCH  11  12
ATOM     12  C   LIG    1       -0.249  -6.036  -5.889  0.00  0.00    -0.070 C 
ATOM     13  C   LIG    1       -1.638  -6.425  -5.380  0.00  0.00    +0.020 C 
ATOM     14  C   LIG    1        0.441  -7.267  -6.480  0.00  0.00    +0.030 C 
ATOM     15  C   LIG    1       -0.384  -4.960  -6.968  0.00  0.00    +0.020 C 
ENDBRANCH  11  12
ENDBRANCH  10  11
ENDBRANCH   9  10
ENDBRANCH   4   9
TORSDOF 5
ENDMDL
MODEL      759
REMARK  Name = ZINC000613408345
REMARK                            x       y       z     vdW  Elec       q    Type
REMARK                         _______ _______ _______ _____ _____    ______ ____
ROOT
ATOM      1  N   LIG    1       -2.486  -5.091   0.185  0.00  0.00    -0.380 N 
ATOM      2  H   LIG    1       -1.692  -5.475   0.675  0.00  0.00    +0.420 HD
ENDROOT
BRANCH   1   3
ATOM      3  C   LIG    1       -2.042  -4.518  -1.093  0.00  0.00    +0.160 C 
ATOM      4  C   LIG    1       -0.858  -3.580  -0.847  0.00  0.00    +0.090 C 
ATOM      5  C   LIG    1       -3.192  -3.732  -1.726  0.00  0.00    +0.090 C 
ENDBRANCH   1   3
BRANCH   1   6
ATOM      6  C   LIG    1       -3.106  -4.042   1.004  0.00  0.00    +0.240 C 
BRANCH   6   7
ATOM      7  C   LIG    1       -2.014  -3.178   1.638  0.00  0.00    +0.020 C 
BRANCH   7   8
ATOM      8  C   LIG    1       -2.645  -2.228   2.659  0.00  0.00    +0.020 C 
BRANCH   8  10
ATOM      9  C   LIG    1       -2.183  -0.415   4.315  0.00  0.00    +0.020 C 
ATOM     10  C   LIG    1       -1.553  -1.364   3.294  0.00  0.00    +0.010 C 
ENDBRANCH   8  10
ENDBRANCH   7   8
ENDBRANCH   6   7
ENDBRANCH   1   6
BRANCH   1  11
ATOM     11  C   LIG    1       -3.465  -6.156  -0.071  0.00  0.00    +0.240 C 
BRANCH  11  12
ATOM     12  C   LIG    1       -2.793  -7.292  -0.845  0.00  0.00    +0.040 C 
BRANCH  12  13
ATOM     13  C   LIG    1       -3.830  -8.366  -1.177  0.00  0.00    -0.010 C 
ATOM     14  C   LIG    1       -4.338  -9.003   0.117  0.00  0.00    +0.020 C 
ATOM     15  C   LIG    1       -3.188  -9.441  -2.057  0.00  0.00    +0.040 C 
ENDBRANCH  12  13
ENDBRANCH  11  12
ENDBRANCH   1  11
TORSDOF 8
ENDMDL
MODEL      760
REMARK  Name = ZINC001167662857
REMARK                            x       y       z     vdW  Elec       q    Type
REMARK                         _______ _______ _______ _____ _____    ______ ____
ROOT
ATOM      1  C   LIG    1        0.718  -0.497  -1.257  0.00  0.00    +0.000 C 
ATOM      2  C   LIG    1        2.227  -0.168  -1.192  0.00  0.00    +0.060 C 
ATOM      3  C   LIG    1        2.934  -1.404  -1.779  0.00  0.00    +0.250 C 
ATOM      4  N   LIG    1        1.878  -2.359  -2.179  0.00  0.00    -0.390 N 
ATOM      5  H   LIG    1        1.644  -2.231  -3.152  0.00  0.00    +0.430 HD
ATOM      6  C   LIG    1        0.700  -2.045  -1.327  0.00  0.00    +0.270 C 
ENDROOT
BRANCH   1   8
ATOM      7  C   LIG    1       -0.019   1.526   0.010  0.00  0.00    +0.030 C 
ATOM      8  C   LIG    1        0.002  -0.004   0.002  0.00  0.00    +0.030 C 
ENDBRANCH   1   8
BRANCH   4   9
ATOM      9  C   LIG    1        2.326  -3.738  -1.941  0.00  0.00    +0.250 C 
BRANCH   9  10
ATOM     10  C   LIG    1        3.489  -4.065  -2.879  0.00  0.00    +0.030 C 
BRANCH  10  11
ATOM     11  C   LIG    1        3.955  -5.501  -2.632  0.00  0.00    +0.030 C 
BRANCH  11  12
ATOM     12  C   LIG    1        5.119  -5.829  -3.570  0.00  0.00    -0.070 C 
ATOM     13  C   LIG    1        4.659  -5.685  -5.022  0.00  0.00    +0.020 C 
ATOM     14  C   LIG    1        5.585  -7.265  -3.322  0.00  0.00    +0.030 C 
ATOM     15  C   LIG    1        6.276  -4.864  -3.304  0.00  0.00    +0.020 C 
ENDBRANCH  11  12
ENDBRANCH  10  11
ENDBRANCH   9  10
ENDBRANCH   4   9
TORSDOF 5
ENDMDL
MODEL      761
REMARK  Name = ZINC001167659755
REMARK                            x       y       z     vdW  Elec       q    Type
REMARK                         _______ _______ _______ _____ _____    ______ ____
ROOT
ATOM      1  C   LIG    1       -2.777  -2.493  -0.221  0.00  0.00    +0.170 C 
ATOM      2  C   LIG    1       -3.291  -1.971  -1.564  0.00  0.00    +0.040 C 
ATOM      3  C   LIG    1       -4.716  -2.476  -1.796  0.00  0.00    +0.040 C 
ATOM      4  C   LIG    1       -4.719  -4.006  -1.810  0.00  0.00    -0.070 C 
ATOM      5  C   LIG    1       -4.206  -4.528  -0.467  0.00  0.00    +0.050 C 
ATOM      6  C   LIG    1       -3.811  -4.508  -2.933  0.00  0.00    +0.020 C 
ATOM      7  C   LIG    1       -6.145  -4.511  -2.042  0.00  0.00    +0.030 C 
ATOM      8  C   LIG    1       -2.780  -4.023  -0.234  0.00  0.00    +0.040 C 
ENDROOT
BRANCH   1   9
ATOM      9  N   LIG    1       -1.409  -2.008   0.003  0.00  0.00    -0.390 N 
ATOM     10  C   LIG    1       -0.915  -2.510   1.292  0.00  0.00    +0.310 C 
ATOM     11  H   LIG    1       -0.809  -2.340  -0.739  0.00  0.00    +0.420 HD
BRANCH   9  12
ATOM     12  C   LIG    1       -1.406  -0.539   0.015  0.00  0.00    +0.250 C 
BRANCH  12  14
ATOM     13  C   LIG    1        0.812  -0.418  -1.128  0.00  0.00    +0.030 C 
ATOM     14  C   LIG    1        0.034  -0.033   0.131  0.00  0.00    -0.030 C 
ATOM     15  C   LIG    1        0.028   1.489   0.283  0.00  0.00    +0.070 C 
ENDBRANCH  12  14
ENDBRANCH   9  12
ENDBRANCH   1   9
TORSDOF 3
ENDMDL
MODEL      762
REMARK  Name = ZINC001167798065
REMARK                            x       y       z     vdW  Elec       q    Type
REMARK                         _______ _______ _______ _____ _____    ______ ____
ROOT
ATOM      1  N   LIG    1       -2.791  -2.572   0.015  0.00  0.00    -0.380 N 
ATOM      2  C   LIG    1       -3.464  -2.182  -1.230  0.00  0.00    +0.250 C 
ATOM      3  C   LIG    1       -2.671  -2.707  -2.429  0.00  0.00    +0.050 C 
ATOM      4  C   LIG    1       -2.587  -4.234  -2.349  0.00  0.00    +0.040 C 
ATOM      5  C   LIG    1       -1.951  -4.631  -1.014  0.00  0.00    -0.020 C 
ATOM      6  C   LIG    1       -1.932  -6.156  -0.890  0.00  0.00    +0.070 C 
ATOM      7  C   LIG    1       -2.770  -4.035   0.131  0.00  0.00    +0.170 C 
ATOM      8  H   LIG    1       -3.287  -2.180   0.801  0.00  0.00    +0.420 HD
ENDROOT
BRANCH   1   9
ATOM      9  C   LIG    1       -1.413  -2.063   0.004  0.00  0.00    +0.230 C 
BRANCH   9  10
ATOM     10  C   LIG    1       -1.433  -0.534   0.013  0.00  0.00    +0.020 C 
BRANCH  10  12
ATOM     11  C   LIG    1       -0.019   1.526   0.010  0.00  0.00    +0.030 C 
ATOM     12  C   LIG    1        0.002  -0.004   0.002  0.00  0.00    +0.020 C 
ENDBRANCH  10  12
ENDBRANCH   9  10
ENDBRANCH   1   9
BRANCH   7  13
ATOM     13  C   LIG    1       -2.138  -4.428   1.468  0.00  0.00    +0.060 C 
BRANCH  13  14
ATOM     14  C   LIG    1       -3.025  -3.938   2.615  0.00  0.00    -0.010 C 
ATOM     15  C   LIG    1       -2.393  -4.331   3.952  0.00  0.00    +0.030 C 
ENDBRANCH  13  14
ENDBRANCH   7  13
TORSDOF 5
ENDMDL
MODEL      763
REMARK  Name = ZINC001167799188
REMARK                            x       y       z     vdW  Elec       q    Type
REMARK                         _______ _______ _______ _____ _____    ______ ____
ROOT
ATOM      1  C   LIG    1        0.763  -2.041   1.233  0.00  0.00    +0.170 C 
ATOM      2  C   LIG    1        1.610  -2.545   2.404  0.00  0.00    -0.020 C 
ATOM      3  C   LIG    1        1.628  -4.076   2.391  0.00  0.00    +0.050 C 
ATOM      4  C   LIG    1        0.188  -4.595   2.451  0.00  0.00    +0.050 C 
ATOM      5  C   LIG    1       -0.606  -4.014   1.278  0.00  0.00    +0.250 C 
ATOM      6  C   LIG    1        3.038  -2.015   2.266  0.00  0.00    +0.070 C 
ATOM      7  N   LIG    1       -0.608  -2.549   1.363  0.00  0.00    -0.380 N 
ATOM      8  H   LIG    1       -1.177  -2.171   0.620  0.00  0.00    +0.420 HD
ENDROOT
BRANCH   1   9
ATOM      9  C   LIG    1        0.742  -0.511   1.242  0.00  0.00    +0.060 C 
BRANCH   9  11
ATOM     10  C   LIG    1       -0.019   1.526   0.010  0.00  0.00    +0.030 C 
ATOM     11  C   LIG    1        0.002  -0.004   0.002  0.00  0.00    -0.010 C 
ENDBRANCH   9  11
ENDBRANCH   1   9
BRANCH   7  12
ATOM     12  C   LIG    1       -1.161  -2.135   2.659  0.00  0.00    +0.250 C 
BRANCH  12  13
ATOM     13  C   LIG    1       -2.632  -2.548   2.741  0.00  0.00    -0.030 C 
ATOM     14  C   LIG    1       -3.437  -1.777   1.693  0.00  0.00    +0.030 C 
ATOM     15  C   LIG    1       -3.174  -2.229   4.136  0.00  0.00    +0.070 C 
ENDBRANCH  12  13
ENDBRANCH   7  12
TORSDOF 4
ENDMDL
MODEL      764
REMARK  Name = ZINC001167798066
REMARK                            x       y       z     vdW  Elec       q    Type
REMARK                         _______ _______ _______ _____ _____    ______ ____
ROOT
ATOM      1  N   LIG    1       -2.934  -2.584   0.108  0.00  0.00    -0.380 N 
ATOM      2  C   LIG    1       -3.630  -2.081  -1.083  0.00  0.00    +0.250 C 
ATOM      3  C   LIG    1       -5.032  -2.691  -1.155  0.00  0.00    +0.050 C 
ATOM      4  C   LIG    1       -4.915  -4.216  -1.235  0.00  0.00    +0.040 C 
ATOM      5  C   LIG    1       -4.123  -4.722  -0.026  0.00  0.00    +0.010 C 
ATOM      6  C   LIG    1       -4.887  -4.396   1.258  0.00  0.00    +0.040 C 
ATOM      7  C   LIG    1       -2.755  -4.037   0.002  0.00  0.00    +0.170 C 
ATOM      8  H   LIG    1       -3.480  -2.372   0.930  0.00  0.00    +0.420 HD
ENDROOT
BRANCH   1   9
ATOM      9  C   LIG    1       -1.620  -1.936   0.215  0.00  0.00    +0.240 C 
BRANCH   9  10
ATOM     10  C   LIG    1       -1.808  -0.437   0.455  0.00  0.00    +0.030 C 
BRANCH  10  12
ATOM     11  C   LIG    1       -0.628   1.737   0.806  0.00  0.00    +0.030 C 
ATOM     12  C   LIG    1       -0.439   0.238   0.566  0.00  0.00    +0.020 C 
ENDBRANCH  10  12
ENDBRANCH   9  10
ENDBRANCH   1   9
BRANCH   7  13
ATOM     13  C   LIG    1       -1.959  -4.538   1.209  0.00  0.00    +0.030 C 
BRANCH  13  14
ATOM     14  C   LIG    1       -1.721  -6.043   1.073  0.00  0.00    +0.030 C 
ATOM     15  C   LIG    1       -1.020  -6.564   2.329  0.00  0.00    +0.030 C 
ENDBRANCH  13  14
ENDBRANCH   7  13
TORSDOF 5
ENDMDL
MODEL      765
REMARK  Name = ZINC001167799187
REMARK                            x       y       z     vdW  Elec       q    Type
REMARK                         _______ _______ _______ _____ _____    ______ ____
ROOT
ATOM      1  C   LIG    1        0.928  -1.939   1.318  0.00  0.00    +0.170 C 
ATOM      2  C   LIG    1        1.512  -2.346   2.673  0.00  0.00    +0.010 C 
ATOM      3  C   LIG    1        1.518  -3.873   2.782  0.00  0.00    +0.050 C 
ATOM      4  C   LIG    1        2.311  -4.456   1.609  0.00  0.00    +0.050 C 
ATOM      5  C   LIG    1        1.697  -3.971   0.294  0.00  0.00    +0.250 C 
ATOM      6  C   LIG    1        2.944  -1.819   2.791  0.00  0.00    +0.050 C 
ATOM      7  N   LIG    1        1.746  -2.506   0.239  0.00  0.00    -0.380 N 
ATOM      8  H   LIG    1        2.701  -2.198   0.345  0.00  0.00    +0.420 HD
ENDROOT
BRANCH   1   9
ATOM      9  C   LIG    1        0.920  -0.413   1.204  0.00  0.00    +0.030 C 
BRANCH   9  11
ATOM     10  C   LIG    1        0.031   1.701   2.195  0.00  0.00    +0.030 C 
ATOM     11  C   LIG    1        0.003   0.174   2.280  0.00  0.00    +0.020 C 
ENDBRANCH   9  11
ENDBRANCH   1   9
BRANCH   7  12
ATOM     12  C   LIG    1        1.226  -2.048  -1.056  0.00  0.00    +0.240 C 
BRANCH  12  13
ATOM     13  C   LIG    1        2.150  -2.530  -2.176  0.00  0.00    -0.030 C 
ATOM     14  C   LIG    1        3.518  -1.862  -2.031  0.00  0.00    +0.030 C 
ATOM     15  C   LIG    1        1.544  -2.162  -3.532  0.00  0.00    +0.070 C 
ENDBRANCH  12  13
ENDBRANCH   7  12
TORSDOF 4
ENDMDL
MODEL      766
REMARK  Name = ZINC001167798064
REMARK                            x       y       z     vdW  Elec       q    Type
REMARK                         _______ _______ _______ _____ _____    ______ ____
ROOT
ATOM      1  N   LIG    1       -3.052  -2.612   0.169  0.00  0.00    -0.380 N 
ATOM      2  C   LIG    1       -3.764  -2.111  -1.012  0.00  0.00    +0.250 C 
ATOM      3  C   LIG    1       -5.120  -2.812  -1.130  0.00  0.00    +0.050 C 
ATOM      4  C   LIG    1       -4.897  -4.321  -1.268  0.00  0.00    +0.040 C 
ATOM      5  C   LIG    1       -4.089  -4.820  -0.067  0.00  0.00    -0.020 C 
ATOM      6  C   LIG    1       -3.795  -6.312  -0.233  0.00  0.00    +0.070 C 
ATOM      7  C   LIG    1       -2.772  -4.045   0.010  0.00  0.00    +0.170 C 
ATOM      8  H   LIG    1       -3.622  -2.471   0.990  0.00  0.00    +0.420 HD
ENDROOT
BRANCH   1   9
ATOM      9  C   LIG    1       -1.786  -1.882   0.322  0.00  0.00    +0.240 C 
BRANCH   9  10
ATOM     10  C   LIG    1       -2.080  -0.411   0.625  0.00  0.00    +0.030 C 
BRANCH  10  12
ATOM     11  C   LIG    1       -1.056   1.821   1.087  0.00  0.00    +0.030 C 
ATOM     12  C   LIG    1       -0.762   0.350   0.784  0.00  0.00    +0.020 C 
ENDBRANCH  10  12
ENDBRANCH   9  10
ENDBRANCH   1   9
BRANCH   7  13
ATOM     13  C   LIG    1       -1.959  -4.538   1.209  0.00  0.00    +0.050 C 
BRANCH  13  14
ATOM     14  C   LIG    1       -2.732  -4.258   2.499  0.00  0.00    -0.010 C 
ATOM     15  C   LIG    1       -1.870  -4.642   3.703  0.00  0.00    +0.040 C 
ENDBRANCH  13  14
ENDBRANCH   7  13
TORSDOF 5
ENDMDL
MODEL      767
REMARK  Name = ZINC001167798063
REMARK                            x       y       z     vdW  Elec       q    Type
REMARK                         _______ _______ _______ _____ _____    ______ ____
ROOT
ATOM      1  N   LIG    1       -3.138  -2.631  -0.130  0.00  0.00    -0.380 N 
ATOM      2  C   LIG    1       -4.033  -2.466  -1.282  0.00  0.00    +0.240 C 
ATOM      3  C   LIG    1       -5.332  -3.237  -1.038  0.00  0.00    +0.060 C 
ATOM      4  C   LIG    1       -5.010  -4.722  -0.848  0.00  0.00    +0.030 C 
ATOM      5  C   LIG    1       -4.019  -4.876   0.308  0.00  0.00    -0.010 C 
ATOM      6  C   LIG    1       -3.631  -6.348   0.456  0.00  0.00    +0.070 C 
ATOM      7  C   LIG    1       -2.768  -4.044   0.013  0.00  0.00    +0.170 C 
ATOM      8  H   LIG    1       -3.609  -2.322   0.707  0.00  0.00    +0.420 HD
ENDROOT
BRANCH   1   9
ATOM      9  C   LIG    1       -1.926  -1.827  -0.334  0.00  0.00    +0.250 C 
BRANCH   9  10
ATOM     10  C   LIG    1       -2.282  -0.341  -0.263  0.00  0.00    +0.030 C 
BRANCH  10  12
ATOM     11  C   LIG    1       -1.375   1.983  -0.405  0.00  0.00    +0.030 C 
ATOM     12  C   LIG    1       -1.019   0.496  -0.476  0.00  0.00    +0.020 C 
ENDBRANCH  10  12
ENDBRANCH   9  10
ENDBRANCH   1   9
BRANCH   7  13
ATOM     13  C   LIG    1       -2.124  -4.537  -1.284  0.00  0.00    +0.050 C 
BRANCH  13  14
ATOM     14  C   LIG    1       -0.628  -4.217  -1.264  0.00  0.00    +0.000 C 
ATOM     15  C   LIG    1       -0.006  -4.601  -2.608  0.00  0.00    +0.030 C 
ENDBRANCH  13  14
ENDBRANCH   7  13
TORSDOF 5
ENDMDL
MODEL      768
REMARK  Name = ZINC000676740969
REMARK                            x       y       z     vdW  Elec       q    Type
REMARK                         _______ _______ _______ _____ _____    ______ ____
ROOT
ATOM      1  C   LIG    1        0.739  -2.027  -1.265  0.00  0.00    +0.170 C 
ATOM      2  C   LIG    1        1.521  -2.549  -0.041  0.00  0.00    +0.080 C 
ATOM      3  C   LIG    1        2.290  -3.769  -0.612  0.00  0.00    +0.080 C 
ATOM      4  C   LIG    1        2.624  -3.287  -2.045  0.00  0.00    +0.250 C 
ATOM      5  N   LIG    1        1.434  -2.513  -2.471  0.00  0.00    -0.390 N 
ATOM      6  H   LIG    1        1.724  -1.728  -3.035  0.00  0.00    +0.420 HD
ENDROOT
BRANCH   1   7
ATOM      7  C   LIG    1        0.718  -0.497  -1.257  0.00  0.00    -0.080 C 
ATOM      8  C   LIG    1        2.154   0.032  -1.268  0.00  0.00    +0.050 C 
ATOM      9  C   LIG    1       -0.022   0.009  -2.496  0.00  0.00    +0.040 C 
BRANCH   7  11
ATOM     10  C   LIG    1       -0.019   1.526   0.010  0.00  0.00    +0.030 C 
ATOM     11  C   LIG    1        0.002  -0.004   0.002  0.00  0.00    +0.040 C 
ENDBRANCH   7  11
ENDBRANCH   1   7
BRANCH   5  12
ATOM     12  C   LIG    1        0.536  -3.377  -3.248  0.00  0.00    +0.250 C 
BRANCH  12  13
ATOM     13  C   LIG    1        1.215  -3.768  -4.562  0.00  0.00    -0.030 C 
ATOM     14  C   LIG    1        1.420  -2.520  -5.422  0.00  0.00    +0.030 C 
ATOM     15  C   LIG    1        0.332  -4.766  -5.315  0.00  0.00    +0.070 C 
ENDBRANCH  12  13
ENDBRANCH   5  12
TORSDOF 4
ENDMDL
MODEL      769
REMARK  Name = ZINC000676740968
REMARK                            x       y       z     vdW  Elec       q    Type
REMARK                         _______ _______ _______ _____ _____    ______ ____
ROOT
ATOM      1  C   LIG    1        0.576  -1.307  -0.257  0.00  0.00    +0.170 C 
ATOM      2  C   LIG    1       -0.471  -0.268   0.197  0.00  0.00    +0.070 C 
ATOM      3  C   LIG    1       -1.801  -0.852  -0.348  0.00  0.00    +0.080 C 
ATOM      4  C   LIG    1       -1.341  -1.483  -1.685  0.00  0.00    +0.250 C 
ATOM      5  N   LIG    1        0.002  -2.041  -1.399  0.00  0.00    -0.380 N 
ATOM      6  H   LIG    1       -0.080  -3.021  -1.171  0.00  0.00    +0.420 HD
ENDROOT
BRANCH   1   7
ATOM      7  C   LIG    1        1.861  -0.597  -0.688  0.00  0.00    -0.080 C 
ATOM      8  C   LIG    1        2.986  -1.623  -0.838  0.00  0.00    +0.060 C 
ATOM      9  C   LIG    1        1.630   0.105  -2.028  0.00  0.00    +0.040 C 
BRANCH   7  11
ATOM     10  C   LIG    1        3.536   1.148  -0.062  0.00  0.00    +0.030 C 
ATOM     11  C   LIG    1        2.251   0.438   0.369  0.00  0.00    +0.040 C 
ENDBRANCH   7  11
ENDBRANCH   1   7
BRANCH   5  12
ATOM     12  C   LIG    1        0.867  -1.876  -2.575  0.00  0.00    +0.250 C 
BRANCH  12  13
ATOM     13  C   LIG    1        0.913  -3.188  -3.362  0.00  0.00    -0.030 C 
ATOM     14  C   LIG    1        1.585  -4.269  -2.513  0.00  0.00    +0.030 C 
ATOM     15  C   LIG    1        1.711  -2.981  -4.651  0.00  0.00    +0.070 C 
ENDBRANCH  12  13
ENDBRANCH   5  12
TORSDOF 4
ENDMDL
MODEL      770
REMARK  Name = ZINC000676716229
REMARK                            x       y       z     vdW  Elec       q    Type
REMARK                         _______ _______ _______ _____ _____    ______ ____
ROOT
ATOM      1  N   LIG    1       -2.828  -4.062   0.007  0.00  0.00    -0.390 N 
ATOM      2  C   LIG    1       -2.224  -4.550   1.254  0.00  0.00    +0.300 C 
ATOM      3  H   LIG    1       -2.285  -4.387  -0.779  0.00  0.00    +0.420 HD
ENDROOT
BRANCH   1   4
ATOM      4  C   LIG    1       -2.848  -2.593   0.015  0.00  0.00    +0.240 C 
BRANCH   4   5
ATOM      5  C   LIG    1       -1.413  -2.063   0.004  0.00  0.00    +0.040 C 
BRANCH   5   6
ATOM      6  C   LIG    1       -1.433  -0.534   0.013  0.00  0.00    -0.060 C 
ATOM      7  C   LIG    1       -2.173  -0.027  -1.227  0.00  0.00    +0.020 C 
ATOM      8  C   LIG    1       -2.149  -0.040   1.272  0.00  0.00    +0.020 C 
BRANCH   6  10
ATOM      9  C   LIG    1       -0.019   1.526   0.010  0.00  0.00    +0.020 C 
ATOM     10  C   LIG    1        0.002  -0.004   0.002  0.00  0.00    +0.030 C 
ENDBRANCH   6  10
ENDBRANCH   5   6
ENDBRANCH   4   5
ENDBRANCH   1   4
BRANCH   1  11
ATOM     11  C   LIG    1       -4.202  -4.570  -0.103  0.00  0.00    +0.250 C 
BRANCH  11  12
ATOM     12  C   LIG    1       -4.173  -6.093  -0.237  0.00  0.00    +0.060 C 
BRANCH  12  13
ATOM     13  C   LIG    1       -5.604  -6.622  -0.352  0.00  0.00    -0.060 C 
ATOM     14  C   LIG    1       -5.997  -7.322  -1.655  0.00  0.00    +0.030 C 
ATOM     15  C   LIG    1       -5.797  -8.140  -0.377  0.00  0.00    +0.030 C 
ENDBRANCH  12  13
ENDBRANCH  11  12
ENDBRANCH   1  11
TORSDOF 7
ENDMDL
MODEL      771
REMARK  Name = ZINC001167799190
REMARK                            x       y       z     vdW  Elec       q    Type
REMARK                         _______ _______ _______ _____ _____    ______ ____
ROOT
ATOM      1  C   LIG    1        0.691  -2.230   1.212  0.00  0.00    +0.170 C 
ATOM      2  C   LIG    1        1.421  -2.742   2.456  0.00  0.00    -0.020 C 
ATOM      3  C   LIG    1        0.919  -1.981   3.686  0.00  0.00    +0.030 C 
ATOM      4  C   LIG    1       -0.599  -2.151   3.794  0.00  0.00    +0.060 C 
ATOM      5  C   LIG    1       -1.255  -1.661   2.501  0.00  0.00    +0.240 C 
ATOM      6  C   LIG    1        2.926  -2.516   2.293  0.00  0.00    +0.070 C 
ATOM      7  N   LIG    1       -0.753  -2.445   1.367  0.00  0.00    -0.380 N 
ATOM      8  H   LIG    1       -0.931  -3.424   1.531  0.00  0.00    +0.420 HD
ENDROOT
BRANCH   1   9
ATOM      9  C   LIG    1        0.968  -0.736   1.038  0.00  0.00    +0.050 C 
BRANCH   9  11
ATOM     10  C   LIG    1        1.242   1.099  -0.635  0.00  0.00    +0.030 C 
ATOM     11  C   LIG    1        0.830  -0.361  -0.439  0.00  0.00    +0.000 C 
ENDBRANCH   9  11
ENDBRANCH   1   9
BRANCH   7  12
ATOM     12  C   LIG    1       -1.441  -2.023   0.140  0.00  0.00    +0.250 C 
BRANCH  12  13
ATOM     13  C   LIG    1       -2.908  -2.453   0.203  0.00  0.00    -0.030 C 
ATOM     14  C   LIG    1       -2.991  -3.981   0.209  0.00  0.00    +0.030 C 
ATOM     15  C   LIG    1       -3.654  -1.907  -1.016  0.00  0.00    +0.070 C 
ENDBRANCH  12  13
ENDBRANCH   7  12
TORSDOF 4
ENDMDL
MODEL      772
REMARK  Name = ZINC001167799189
REMARK                            x       y       z     vdW  Elec       q    Type
REMARK                         _______ _______ _______ _____ _____    ______ ____
ROOT
ATOM      1  C   LIG    1        0.851  -1.937   1.128  0.00  0.00    +0.170 C 
ATOM      2  C   LIG    1        1.412  -2.554   2.411  0.00  0.00    -0.020 C 
ATOM      3  C   LIG    1        1.316  -4.079   2.321  0.00  0.00    +0.050 C 
ATOM      4  C   LIG    1        2.064  -4.556   1.073  0.00  0.00    +0.050 C 
ATOM      5  C   LIG    1        1.479  -3.864  -0.160  0.00  0.00    +0.250 C 
ATOM      6  C   LIG    1        0.602  -2.060   3.612  0.00  0.00    +0.070 C 
ATOM      7  N   LIG    1        1.625  -2.410  -0.025  0.00  0.00    -0.380 N 
ATOM      8  H   LIG    1        2.599  -2.182   0.107  0.00  0.00    +0.420 HD
ENDROOT
BRANCH   1   9
ATOM      9  C   LIG    1        0.944  -0.412   1.213  0.00  0.00    +0.060 C 
BRANCH   9  11
ATOM     10  C   LIG    1        2.513   1.530   1.300  0.00  0.00    +0.040 C 
ATOM     11  C   LIG    1        2.412   0.004   1.327  0.00  0.00    -0.010 C 
ENDBRANCH   9  11
ENDBRANCH   1   9
BRANCH   7  12
ATOM     12  C   LIG    1        1.131  -1.754  -1.244  0.00  0.00    +0.240 C 
BRANCH  12  13
ATOM     13  C   LIG    1        2.024  -2.137  -2.426  0.00  0.00    -0.030 C 
ATOM     14  C   LIG    1        3.430  -1.576  -2.206  0.00  0.00    +0.030 C 
ATOM     15  C   LIG    1        1.440  -1.557  -3.715  0.00  0.00    +0.070 C 
ENDBRANCH  12  13
ENDBRANCH   7  12
TORSDOF 4
ENDMDL
MODEL      773
REMARK  Name = ZINC000677232431
REMARK                            x       y       z     vdW  Elec       q    Type
REMARK                         _______ _______ _______ _____ _____    ______ ____
ROOT
ATOM      1  N   LIG    1       -1.784  -0.076   1.390  0.00  0.00    -0.380 N 
ATOM      2  H   LIG    1       -1.247   0.124   2.220  0.00  0.00    +0.420 HD
ENDROOT
BRANCH   1   3
ATOM      3  C   LIG    1       -3.070  -0.675   1.772  0.00  0.00    +0.210 C 
ATOM      4  C   LIG    1       -2.897  -2.156   1.942  0.00  0.00    -0.090 C 
ATOM      5  C   LIG    1       -3.416  -2.840   2.912  0.00  0.00    +0.050 C 
ATOM      6  C   LIG    1       -4.254  -2.245   4.005  0.00  0.00    +0.070 C 
ATOM      7  C   LIG    1       -4.751  -0.858   3.594  0.00  0.00    +0.050 C 
ATOM      8  C   LIG    1       -3.553  -0.049   3.082  0.00  0.00    +0.040 C 
ENDBRANCH   1   3
BRANCH   1   9
ATOM      9  C   LIG    1       -2.025   1.170   0.650  0.00  0.00    +0.240 C 
ATOM     10  C   LIG    1       -2.881   2.111   1.500  0.00  0.00    +0.080 C 
ENDBRANCH   1   9
BRANCH   1  11
ATOM     11  C   LIG    1       -1.039  -1.015   0.540  0.00  0.00    +0.160 C 
BRANCH  11  13
ATOM     12  C   LIG    1        0.395  -1.219  -1.496  0.00  0.00    +0.050 C 
ATOM     13  C   LIG    1       -0.476  -0.269  -0.671  0.00  0.00    +0.030 C 
ENDBRANCH  11  13
BRANCH  11  14
ATOM     14  C   LIG    1        0.111  -1.626   1.342  0.00  0.00    +0.050 C 
ATOM     15  C   LIG    1       -0.455  -2.429   2.515  0.00  0.00    +0.030 C 
ENDBRANCH  11  14
ENDBRANCH   1  11
TORSDOF 5
ENDMDL
MODEL      774
REMARK  Name = ZINC000677232430
REMARK                            x       y       z     vdW  Elec       q    Type
REMARK                         _______ _______ _______ _____ _____    ______ ____
ROOT
ATOM      1  N   LIG    1       -2.271  -0.281   1.272  0.00  0.00    -0.380 N 
ATOM      2  H   LIG    1       -2.433  -0.811   2.115  0.00  0.00    +0.420 HD
ENDROOT
BRANCH   1   3
ATOM      3  C   LIG    1       -3.066  -0.850   0.176  0.00  0.00    +0.210 C 
ATOM      4  C   LIG    1       -4.520  -0.568   0.417  0.00  0.00    -0.110 C 
ATOM      5  C   LIG    1       -5.467  -1.431   0.233  0.00  0.00    +0.060 C 
ATOM      6  C   LIG    1       -5.242  -2.838  -0.238  0.00  0.00    +0.060 C 
ATOM      7  C   LIG    1       -3.850  -2.969  -0.861  0.00  0.00    +0.050 C 
ATOM      8  C   LIG    1       -2.830  -2.360   0.108  0.00  0.00    +0.040 C 
ENDBRANCH   1   3
BRANCH   1   9
ATOM      9  C   LIG    1       -2.667   1.117   1.490  0.00  0.00    +0.230 C 
ATOM     10  C   LIG    1       -3.345   1.248   2.855  0.00  0.00    +0.080 C 
ENDBRANCH   1   9
BRANCH   1  11
ATOM     11  C   LIG    1       -0.845  -0.338   0.924  0.00  0.00    +0.160 C 
BRANCH  11  13
ATOM     12  C   LIG    1        0.537  -0.374  -1.157  0.00  0.00    +0.050 C 
ATOM     13  C   LIG    1       -0.628   0.314  -0.443  0.00  0.00    +0.030 C 
ENDBRANCH  11  13
BRANCH  11  14
ATOM     14  C   LIG    1       -0.032   0.410   1.982  0.00  0.00    +0.050 C 
ATOM     15  C   LIG    1       -0.179  -0.295   3.332  0.00  0.00    +0.030 C 
ENDBRANCH  11  14
ENDBRANCH   1  11
TORSDOF 5
ENDMDL
MODEL      775
REMARK  Name = ZINC000677568743
REMARK                            x       y       z     vdW  Elec       q    Type
REMARK                         _______ _______ _______ _____ _____    ______ ____
ROOT
ATOM      1  N   LIG    1        1.473  -2.527   2.423  0.00  0.00    -0.390 N 
ATOM      2  C   LIG    1        0.703  -2.184   3.638  0.00  0.00    +0.250 C 
ATOM      3  C   LIG    1        0.911  -3.387   4.592  0.00  0.00    +0.080 C 
ATOM      4  C   LIG    1        0.912  -4.579   3.599  0.00  0.00    +0.090 C 
ATOM      5  C   LIG    1        1.606  -3.992   2.357  0.00  0.00    +0.050 C 
ATOM      6  C   LIG    1        0.930  -4.523   1.095  0.00  0.00    +0.050 C 
ATOM      7  C   LIG    1        1.061  -6.048   1.049  0.00  0.00    +0.040 C 
ATOM      8  C   LIG    1        2.542  -6.431   1.045  0.00  0.00    +0.020 C 
ATOM      9  C   LIG    1        3.210  -5.905   2.317  0.00  0.00    +0.040 C 
ATOM     10  C   LIG    1        3.084  -4.381   2.366  0.00  0.00    +0.050 C 
ATOM     11  H   LIG    1        2.388  -2.105   2.470  0.00  0.00    +0.420 HD
ENDROOT
BRANCH   1  12
ATOM     12  C   LIG    1        0.763  -2.041   1.233  0.00  0.00    +0.250 C 
BRANCH  12  13
ATOM     13  C   LIG    1        0.742  -0.511   1.242  0.00  0.00    +0.010 C 
BRANCH  13  15
ATOM     14  C   LIG    1       -0.019   1.526   0.010  0.00  0.00    +0.030 C 
ATOM     15  C   LIG    1        0.002  -0.004   0.002  0.00  0.00    +0.020 C 
ENDBRANCH  13  15
ENDBRANCH  12  13
ENDBRANCH   1  12
TORSDOF 3
ENDMDL
MODEL      776
REMARK  Name = ZINC001168111480
REMARK                            x       y       z     vdW  Elec       q    Type
REMARK                         _______ _______ _______ _____ _____    ______ ____
ROOT
ATOM      1  N   LIG    1       -2.789  -2.574   0.094  0.00  0.00    -0.390 N 
ATOM      2  C   LIG    1       -3.484  -2.053  -1.103  0.00  0.00    +0.250 C 
ATOM      3  C   LIG    1       -4.405  -3.212  -1.560  0.00  0.00    +0.080 C 
ATOM      4  C   LIG    1       -3.520  -4.451  -1.264  0.00  0.00    +0.070 C 
ATOM      5  C   LIG    1       -2.776  -4.047   0.022  0.00  0.00    +0.160 C 
ATOM      6  H   LIG    1       -3.278  -2.279   0.926  0.00  0.00    +0.430 HD
ENDROOT
BRANCH   1   7
ATOM      7  C   LIG    1       -1.410  -2.068   0.124  0.00  0.00    +0.250 C 
BRANCH   7   8
ATOM      8  C   LIG    1       -1.428  -0.549   0.305  0.00  0.00    +0.010 C 
BRANCH   8  10
ATOM      9  C   LIG    1       -0.011   1.498   0.518  0.00  0.00    +0.030 C 
ATOM     10  C   LIG    1        0.008  -0.022   0.337  0.00  0.00    +0.020 C 
ENDBRANCH   8  10
ENDBRANCH   7   8
ENDBRANCH   1   7
BRANCH   5  11
ATOM     11  C   LIG    1       -1.334  -4.556  -0.029  0.00  0.00    +0.040 C 
BRANCH  11  12
ATOM     12  C   LIG    1       -1.334  -6.085  -0.079  0.00  0.00    +0.040 C 
BRANCH  12  13
ATOM     13  C   LIG    1        0.104  -6.599   0.004  0.00  0.00    -0.030 C 
ATOM     14  C   LIG    1        0.877  -6.154  -1.239  0.00  0.00    +0.020 C 
ATOM     15  C   LIG    1        0.097  -8.127   0.080  0.00  0.00    +0.030 C 
ENDBRANCH  12  13
ENDBRANCH  11  12
ENDBRANCH   5  11
TORSDOF 6
ENDMDL
MODEL      777
REMARK  Name = ZINC001168111479
REMARK                            x       y       z     vdW  Elec       q    Type
REMARK                         _______ _______ _______ _____ _____    ______ ____
ROOT
ATOM      1  N   LIG    1       -2.791  -2.572   0.015  0.00  0.00    -0.390 N 
ATOM      2  C   LIG    1       -3.463  -2.212  -1.252  0.00  0.00    +0.250 C 
ATOM      3  C   LIG    1       -3.301  -3.461  -2.154  0.00  0.00    +0.080 C 
ATOM      4  C   LIG    1       -3.452  -4.613  -1.126  0.00  0.00    +0.070 C 
ATOM      5  C   LIG    1       -2.776  -4.041   0.135  0.00  0.00    +0.160 C 
ATOM      6  H   LIG    1       -3.295  -2.173   0.792  0.00  0.00    +0.420 HD
ENDROOT
BRANCH   1   7
ATOM      7  C   LIG    1       -1.413  -2.063   0.004  0.00  0.00    +0.250 C 
BRANCH   7   8
ATOM      8  C   LIG    1       -1.433  -0.534   0.013  0.00  0.00    +0.030 C 
BRANCH   8  10
ATOM      9  C   LIG    1       -0.019   1.526   0.010  0.00  0.00    +0.030 C 
ATOM     10  C   LIG    1        0.002  -0.004   0.002  0.00  0.00    +0.020 C 
ENDBRANCH   8  10
ENDBRANCH   7   8
ENDBRANCH   1   7
BRANCH   5  11
ATOM     11  C   LIG    1       -3.554  -4.469   1.381  0.00  0.00    +0.050 C 
BRANCH  11  12
ATOM     12  C   LIG    1       -2.827  -3.971   2.632  0.00  0.00    +0.010 C 
BRANCH  12  13
ATOM     13  C   LIG    1       -3.604  -4.398   3.878  0.00  0.00    -0.020 C 
ATOM     14  C   LIG    1       -4.964  -3.698   3.896  0.00  0.00    +0.000 C 
ATOM     15  C   LIG    1       -2.814  -4.010   5.130  0.00  0.00    +0.030 C 
ENDBRANCH  12  13
ENDBRANCH  11  12
ENDBRANCH   5  11
TORSDOF 6
ENDMDL
MODEL      778
REMARK  Name = ZINC001168216648
REMARK                            x       y       z     vdW  Elec       q    Type
REMARK                         _______ _______ _______ _____ _____    ______ ____
ROOT
ATOM      1  N   LIG    1        3.797  -0.710  -0.296  0.00  0.00    -0.380 N 
ATOM      2  C   LIG    1        4.070  -1.466   0.934  0.00  0.00    +0.320 C 
ATOM      3  H   LIG    1        4.236   0.196  -0.238  0.00  0.00    +0.420 HD
ENDROOT
BRANCH   1   8
ATOM      4  C   LIG    1        0.658   2.558  -0.613  0.00  0.00    +0.010 C 
ATOM      5  C   LIG    1       -0.009   1.184  -0.700  0.00  0.00    -0.010 C 
ATOM      6  C   LIG    1        0.551   0.421  -1.902  0.00  0.00    +0.040 C 
ATOM      7  C   LIG    1        2.062   0.245  -1.736  0.00  0.00    +0.040 C 
ATOM      8  C   LIG    1        2.346  -0.542  -0.455  0.00  0.00    +0.160 C 
ATOM      9  C   LIG    1        1.786   0.221   0.747  0.00  0.00    +0.040 C 
ATOM     10  C   LIG    1        0.275   0.397   0.581  0.00  0.00    +0.050 C 
ENDBRANCH   1   8
BRANCH   1  11
ATOM     11  C   LIG    1        4.334  -1.443  -1.450  0.00  0.00    +0.250 C 
BRANCH  11  12
ATOM     12  C   LIG    1        5.863  -1.377  -1.429  0.00  0.00    -0.080 C 
ATOM     13  C   LIG    1        6.309   0.083  -1.315  0.00  0.00    +0.040 C 
ATOM     14  C   LIG    1        6.417  -1.980  -2.721  0.00  0.00    +0.070 C 
ATOM     15  C   LIG    1        6.391  -2.166  -0.230  0.00  0.00    +0.050 C 
ENDBRANCH  11  12
ENDBRANCH   1  11
TORSDOF 3
ENDMDL
MODEL      779
REMARK  Name = ZINC001168163453
REMARK                            x       y       z     vdW  Elec       q    Type
REMARK                         _______ _______ _______ _____ _____    ______ ____
ROOT
ATOM      1  C   LIG    1        0.742  -0.511   1.242  0.00  0.00    -0.080 C 
ATOM      2  C   LIG    1       -0.024  -0.117   2.521  0.00  0.00    +0.070 C 
ATOM      3  C   LIG    1       -0.390  -1.455   3.198  0.00  0.00    +0.260 C 
ATOM      4  N   LIG    1        0.615  -2.422   2.683  0.00  0.00    -0.400 N 
ATOM      5  H   LIG    1        1.490  -2.317   3.175  0.00  0.00    +0.430 HD
ATOM      6  C   LIG    1        2.165   0.051   1.277  0.00  0.00    +0.050 C 
ATOM      7  C   LIG    1        0.775  -2.054   1.253  0.00  0.00    +0.260 C 
ENDROOT
BRANCH   1   9
ATOM      8  C   LIG    1       -0.019   1.526   0.010  0.00  0.00    +0.030 C 
ATOM      9  C   LIG    1        0.002  -0.004   0.002  0.00  0.00    +0.040 C 
ENDBRANCH   1   9
BRANCH   4  10
ATOM     10  C   LIG    1        0.116  -3.797   2.810  0.00  0.00    +0.250 C 
BRANCH  10  11
ATOM     11  C   LIG    1       -0.010  -4.160   4.292  0.00  0.00    +0.040 C 
BRANCH  11  12
ATOM     12  C   LIG    1       -0.529  -5.593   4.424  0.00  0.00    -0.060 C 
ATOM     13  C   LIG    1       -1.901  -5.702   3.754  0.00  0.00    +0.030 C 
ATOM     14  C   LIG    1       -0.655  -5.955   5.905  0.00  0.00    +0.040 C 
ATOM     15  C   LIG    1        0.448  -6.554   3.744  0.00  0.00    +0.030 C 
ENDBRANCH  11  12
ENDBRANCH  10  11
ENDBRANCH   4  10
TORSDOF 4
ENDMDL
MODEL      780
REMARK  Name = ZINC001168209042
REMARK                            x       y       z     vdW  Elec       q    Type
REMARK                         _______ _______ _______ _____ _____    ______ ____
ROOT
ATOM      1  N   LIG    1       -2.889  -2.318   0.111  0.00  0.00    -0.380 N 
ATOM      2  H   LIG    1       -3.548  -1.882   0.739  0.00  0.00    +0.420 HD
ENDROOT
BRANCH   1   3
ATOM      3  C   LIG    1       -2.736  -3.735   0.468  0.00  0.00    +0.160 C 
ATOM      4  C   LIG    1       -1.638  -4.362  -0.393  0.00  0.00    +0.040 C 
ATOM      5  C   LIG    1       -1.480  -5.838  -0.021  0.00  0.00    +0.040 C 
ATOM      6  C   LIG    1       -1.098  -5.954   1.456  0.00  0.00    -0.010 C 
ATOM      7  C   LIG    1       -2.196  -5.326   2.317  0.00  0.00    +0.040 C 
ATOM      8  C   LIG    1        0.223  -5.221   1.701  0.00  0.00    +0.010 C 
ATOM      9  C   LIG    1       -2.355  -3.850   1.945  0.00  0.00    +0.040 C 
ENDBRANCH   1   3
BRANCH   1  10
ATOM     10  C   LIG    1       -3.382  -2.211  -1.268  0.00  0.00    +0.240 C 
ATOM     11  C   LIG    1       -4.798  -2.784  -1.350  0.00  0.00    +0.080 C 
ENDBRANCH   1  10
BRANCH   1  12
ATOM     12  C   LIG    1       -1.589  -1.643   0.220  0.00  0.00    +0.240 C 
BRANCH  12  13
ATOM     13  C   LIG    1       -1.770  -0.144  -0.030  0.00  0.00    +0.030 C 
BRANCH  13  15
ATOM     14  C   LIG    1       -0.596   2.057  -0.166  0.00  0.00    +0.030 C 
ATOM     15  C   LIG    1       -0.415   0.559   0.084  0.00  0.00    +0.020 C 
ENDBRANCH  13  15
ENDBRANCH  12  13
ENDBRANCH   1  12
TORSDOF 5
ENDMDL
MODEL      781
REMARK  Name = ZINC001168163451
REMARK                            x       y       z     vdW  Elec       q    Type
REMARK                         _______ _______ _______ _____ _____    ______ ____
ROOT
ATOM      1  C   LIG    1        0.742  -0.511   1.242  0.00  0.00    -0.080 C 
ATOM      2  C   LIG    1        2.225  -0.076   1.196  0.00  0.00    +0.080 C 
ATOM      3  C   LIG    1        2.967  -1.319   1.750  0.00  0.00    +0.250 C 
ATOM      4  N   LIG    1        2.195  -2.455   1.185  0.00  0.00    -0.390 N 
ATOM      5  H   LIG    1        2.466  -2.617   0.227  0.00  0.00    +0.430 HD
ATOM      6  C   LIG    1        0.071   0.015   2.512  0.00  0.00    +0.060 C 
ATOM      7  C   LIG    1        0.774  -2.050   1.252  0.00  0.00    +0.260 C 
ENDROOT
BRANCH   1   9
ATOM      8  C   LIG    1       -0.019   1.526   0.010  0.00  0.00    +0.030 C 
ATOM      9  C   LIG    1        0.002  -0.004   0.002  0.00  0.00    +0.030 C 
ENDBRANCH   1   9
BRANCH   4  10
ATOM     10  C   LIG    1        2.417  -3.666   1.987  0.00  0.00    +0.250 C 
BRANCH  10  11
ATOM     11  C   LIG    1        3.875  -4.109   1.849  0.00  0.00    +0.040 C 
BRANCH  11  12
ATOM     12  C   LIG    1        4.106  -5.370   2.683  0.00  0.00    -0.060 C 
ATOM     13  C   LIG    1        3.801  -5.072   4.153  0.00  0.00    +0.030 C 
ATOM     14  C   LIG    1        5.564  -5.814   2.545  0.00  0.00    +0.040 C 
ATOM     15  C   LIG    1        3.184  -6.486   2.187  0.00  0.00    +0.030 C 
ENDBRANCH  11  12
ENDBRANCH  10  11
ENDBRANCH   4  10
TORSDOF 4
ENDMDL
MODEL      782
REMARK  Name = ZINC001168219102
REMARK                            x       y       z     vdW  Elec       q    Type
REMARK                         _______ _______ _______ _____ _____    ______ ____
ROOT
ATOM      1  N   LIG    1       -0.148  -0.377  -2.596  0.00  0.00    -0.380 N 
ATOM      2  C   LIG    1       -0.390   1.062  -2.769  0.00  0.00    +0.300 C 
ATOM      3  H   LIG    1       -1.010  -0.882  -2.736  0.00  0.00    +0.420 HD
ENDROOT
BRANCH   1   4
ATOM      4  C   LIG    1        0.849  -0.827  -3.576  0.00  0.00    +0.150 C 
ATOM      5  C   LIG    1        1.180  -2.300  -3.328  0.00  0.00    +0.030 C 
ATOM      6  C   LIG    1        2.219  -2.769  -4.349  0.00  0.00    +0.040 C 
ATOM      7  C   LIG    1        1.655  -2.604  -5.762  0.00  0.00    -0.010 C 
ATOM      8  C   LIG    1        1.324  -1.131  -6.011  0.00  0.00    +0.040 C 
ATOM      9  C   LIG    1        0.384  -3.444  -5.904  0.00  0.00    +0.010 C 
ATOM     10  C   LIG    1        0.285  -0.663  -4.989  0.00  0.00    +0.040 C 
ENDBRANCH   1   4
BRANCH   1  11
ATOM     11  C   LIG    1        0.352  -0.629  -1.238  0.00  0.00    +0.150 C 
BRANCH  11  13
ATOM     12  C   LIG    1        2.662   0.191  -1.725  0.00  0.00    +0.040 C 
ATOM     13  C   LIG    1        1.407   0.419  -0.879  0.00  0.00    +0.050 C 
ENDBRANCH  11  13
BRANCH  11  14
ATOM     14  C   LIG    1       -0.808  -0.547  -0.244  0.00  0.00    +0.050 C 
ATOM     15  C   LIG    1       -1.878  -1.572  -0.623  0.00  0.00    +0.040 C 
ENDBRANCH  11  14
ENDBRANCH   1  11
TORSDOF 4
ENDMDL
MODEL      783
REMARK  Name = ZINC001205107740
REMARK                            x       y       z     vdW  Elec       q    Type
REMARK                         _______ _______ _______ _____ _____    ______ ____
ROOT
ATOM      1  N   LIG    1        1.563  -2.621  -2.470  0.00  0.00    -0.390 N 
ATOM      2  H   LIG    1        2.550  -2.426  -2.386  0.00  0.00    +0.420 HD
ENDROOT
BRANCH   1   3
ATOM      3  C   LIG    1        0.873  -2.186  -1.249  0.00  0.00    +0.240 C 
ATOM      4  C   LIG    1        1.547  -2.816  -0.029  0.00  0.00    +0.080 C 
ENDBRANCH   1   3
BRANCH   1   5
ATOM      5  C   LIG    1        1.018  -1.898  -3.626  0.00  0.00    +0.250 C 
BRANCH   5   6
ATOM      6  C   LIG    1        1.335  -0.407  -3.491  0.00  0.00    +0.030 C 
BRANCH   6   8
ATOM      7  C   LIG    1        1.084   1.837  -4.561  0.00  0.00    +0.030 C 
ATOM      8  C   LIG    1        0.766   0.346  -4.695  0.00  0.00    +0.020 C 
ENDBRANCH   6   8
ENDBRANCH   5   6
ENDBRANCH   1   5
BRANCH   1   9
ATOM      9  C   LIG    1        1.364  -4.065  -2.657  0.00  0.00    +0.250 C 
BRANCH   9  10
ATOM     10  C   LIG    1        2.190  -4.543  -3.853  0.00  0.00    +0.030 C 
BRANCH  10  11
ATOM     11  C   LIG    1        2.073  -6.063  -3.978  0.00  0.00    +0.030 C 
BRANCH  11  12
ATOM     12  C   LIG    1        2.898  -6.541  -5.175  0.00  0.00    +0.020 C 
BRANCH  12  13
ATOM     13  C   LIG    1        2.781  -8.061  -5.300  0.00  0.00    -0.030 C 
ATOM     14  C   LIG    1        3.419  -8.724  -4.077  0.00  0.00    +0.020 C 
ATOM     15  C   LIG    1        3.503  -8.526  -6.567  0.00  0.00    +0.030 C 
ENDBRANCH  12  13
ENDBRANCH  11  12
ENDBRANCH  10  11
ENDBRANCH   9  10
ENDBRANCH   1   9
TORSDOF 9
ENDMDL
MODEL      784
REMARK  Name = ZINC001205107682
REMARK                            x       y       z     vdW  Elec       q    Type
REMARK                         _______ _______ _______ _____ _____    ______ ____
ROOT
ATOM      1  N   LIG    1        1.640  -2.264  -2.611  0.00  0.00    -0.390 N 
ATOM      2  H   LIG    1        1.668  -1.992  -3.582  0.00  0.00    +0.420 HD
ENDROOT
BRANCH   1   3
ATOM      3  C   LIG    1        3.004  -2.541  -2.140  0.00  0.00    +0.250 C 
ATOM      4  C   LIG    1        3.795  -3.236  -3.250  0.00  0.00    +0.070 C 
ENDBRANCH   1   3
BRANCH   1   5
ATOM      5  C   LIG    1        1.059  -1.175  -1.814  0.00  0.00    +0.250 C 
BRANCH   5   6
ATOM      6  C   LIG    1        1.843   0.115  -2.063  0.00  0.00    +0.030 C 
BRANCH   6   8
ATOM      7  C   LIG    1        2.021   2.538  -1.483  0.00  0.00    +0.030 C 
ATOM      8  C   LIG    1        1.237   1.248  -1.233  0.00  0.00    +0.020 C 
ENDBRANCH   6   8
ENDBRANCH   5   6
ENDBRANCH   1   5
BRANCH   1   9
ATOM      9  C   LIG    1        0.817  -3.472  -2.464  0.00  0.00    +0.290 C 
BRANCH   9  10
ATOM     10  C   LIG    1        1.259  -4.518  -3.489  0.00  0.00    -0.170 C 
ATOM     11  C   LIG    1        2.076  -5.706  -2.978  0.00  0.00    +0.050 C 
ATOM     12  C   LIG    1        0.620  -5.905  -3.403  0.00  0.00    +0.080 C 
BRANCH  10  13
ATOM     13  C   LIG    1        1.592  -3.978  -4.881  0.00  0.00    +0.000 C 
ATOM     14  C   LIG    1        0.321  -3.427  -5.532  0.00  0.00    +0.030 C 
ATOM     15  C   LIG    1        2.158  -5.108  -5.744  0.00  0.00    +0.040 C 
ENDBRANCH  10  13
ENDBRANCH   9  10
ENDBRANCH   1   9
TORSDOF 7
ENDMDL
MODEL      785
REMARK  Name = ZINC001205100074
REMARK                            x       y       z     vdW  Elec       q    Type
REMARK                         _______ _______ _______ _____ _____    ______ ____
ROOT
ATOM      1  N   LIG    1        2.129  -0.090  -1.209  0.00  0.00    -0.380 N 
ATOM      2  C   LIG    1        2.794  -0.766  -0.089  0.00  0.00    +0.250 C 
ATOM      3  C   LIG    1        4.243  -0.283   0.015  0.00  0.00    +0.050 C 
ATOM      4  C   LIG    1        4.978  -0.608  -1.289  0.00  0.00    +0.030 C 
ATOM      5  C   LIG    1        4.232   0.041  -2.459  0.00  0.00    +0.060 C 
ATOM      6  C   LIG    1        2.785  -0.455  -2.470  0.00  0.00    +0.160 C 
ATOM      7  C   LIG    1        2.035   0.190  -3.637  0.00  0.00    +0.080 C 
ATOM      8  H   LIG    1        2.185   0.909  -1.079  0.00  0.00    +0.420 HD
ENDROOT
BRANCH   1   9
ATOM      9  C   LIG    1        0.718  -0.497  -1.257  0.00  0.00    +0.250 C 
BRANCH   9  11
ATOM     10  C   LIG    1       -0.019   1.526   0.010  0.00  0.00    +0.050 C 
ATOM     11  C   LIG    1        0.002  -0.004   0.002  0.00  0.00    -0.020 C 
BRANCH  11  12
ATOM     12  C   LIG    1       -1.433  -0.534   0.013  0.00  0.00    -0.060 C 
ATOM     13  C   LIG    1       -2.149  -0.040   1.272  0.00  0.00    +0.040 C 
ATOM     14  C   LIG    1       -1.413  -2.063   0.004  0.00  0.00    +0.030 C 
ATOM     15  C   LIG    1       -2.173  -0.027  -1.227  0.00  0.00    +0.030 C 
ENDBRANCH  11  12
ENDBRANCH   9  11
ENDBRANCH   1   9
TORSDOF 3
ENDMDL
MODEL      786
REMARK  Name = ZINC001205099949
REMARK                            x       y       z     vdW  Elec       q    Type
REMARK                         _______ _______ _______ _____ _____    ______ ____
ROOT
ATOM      1  N   LIG    1        0.625  -0.730   6.183  0.00  0.00    -0.380 N 
ATOM      2  C   LIG    1        1.915  -0.039   6.297  0.00  0.00    +0.240 C 
ATOM      3  C   LIG    1        2.695  -0.600   7.489  0.00  0.00    +0.060 C 
ATOM      4  C   LIG    1        1.883  -0.384   8.769  0.00  0.00    +0.030 C 
ATOM      5  C   LIG    1        0.511  -1.046   8.610  0.00  0.00    +0.060 C 
ATOM      6  C   LIG    1       -0.186  -0.467   7.377  0.00  0.00    +0.170 C 
ATOM      7  C   LIG    1       -0.362   1.043   7.553  0.00  0.00    +0.070 C 
ATOM      8  H   LIG    1        0.783  -1.723   6.096  0.00  0.00    +0.420 HD
ENDROOT
BRANCH   1   9
ATOM      9  C   LIG    1       -0.085  -0.243   4.992  0.00  0.00    +0.250 C 
BRANCH   9  10
ATOM     10  C   LIG    1        0.698  -0.630   3.737  0.00  0.00    +0.030 C 
BRANCH  10  11
ATOM     11  C   LIG    1       -0.042  -0.124   2.497  0.00  0.00    +0.030 C 
BRANCH  11  12
ATOM     12  C   LIG    1        0.742  -0.511   1.242  0.00  0.00    +0.020 C 
BRANCH  12  14
ATOM     13  C   LIG    1       -0.019   1.526   0.010  0.00  0.00    +0.020 C 
ATOM     14  C   LIG    1        0.002  -0.004   0.002  0.00  0.00    -0.030 C 
ATOM     15  C   LIG    1        0.718  -0.497  -1.257  0.00  0.00    +0.030 C 
ENDBRANCH  12  14
ENDBRANCH  11  12
ENDBRANCH  10  11
ENDBRANCH   9  10
ENDBRANCH   1   9
TORSDOF 5
ENDMDL
MODEL      787
REMARK  Name = ZINC001205099950
REMARK                            x       y       z     vdW  Elec       q    Type
REMARK                         _______ _______ _______ _____ _____    ______ ____
ROOT
ATOM      1  N   LIG    1        0.625  -0.730   6.183  0.00  0.00    -0.380 N 
ATOM      2  C   LIG    1        1.915  -0.039   6.297  0.00  0.00    +0.250 C 
ATOM      3  C   LIG    1        2.695  -0.600   7.489  0.00  0.00    +0.050 C 
ATOM      4  C   LIG    1        1.883  -0.384   8.769  0.00  0.00    +0.030 C 
ATOM      5  C   LIG    1        0.511  -1.046   8.610  0.00  0.00    +0.060 C 
ATOM      6  C   LIG    1       -0.186  -0.467   7.377  0.00  0.00    +0.160 C 
ATOM      7  C   LIG    1       -1.558  -1.124   7.212  0.00  0.00    +0.080 C 
ATOM      8  H   LIG    1        0.783  -1.723   6.096  0.00  0.00    +0.420 HD
ENDROOT
BRANCH   1   9
ATOM      9  C   LIG    1       -0.085  -0.243   4.992  0.00  0.00    +0.240 C 
BRANCH   9  10
ATOM     10  C   LIG    1        0.698  -0.630   3.737  0.00  0.00    +0.030 C 
BRANCH  10  11
ATOM     11  C   LIG    1       -0.042  -0.124   2.497  0.00  0.00    +0.030 C 
BRANCH  11  12
ATOM     12  C   LIG    1        0.742  -0.511   1.242  0.00  0.00    +0.020 C 
BRANCH  12  14
ATOM     13  C   LIG    1       -0.019   1.526   0.010  0.00  0.00    +0.020 C 
ATOM     14  C   LIG    1        0.002  -0.004   0.002  0.00  0.00    -0.030 C 
ATOM     15  C   LIG    1        0.718  -0.497  -1.257  0.00  0.00    +0.030 C 
ENDBRANCH  12  14
ENDBRANCH  11  12
ENDBRANCH  10  11
ENDBRANCH   9  10
ENDBRANCH   1   9
TORSDOF 5
ENDMDL
MODEL      788
REMARK  Name = ZINC001205100079
REMARK                            x       y       z     vdW  Elec       q    Type
REMARK                         _______ _______ _______ _____ _____    ______ ____
ROOT
ATOM      1  N   LIG    1        2.129  -0.090  -1.209  0.00  0.00    -0.380 N 
ATOM      2  C   LIG    1        2.794  -0.766  -0.089  0.00  0.00    +0.240 C 
ATOM      3  C   LIG    1        4.243  -0.283   0.015  0.00  0.00    +0.060 C 
ATOM      4  C   LIG    1        4.978  -0.608  -1.289  0.00  0.00    +0.030 C 
ATOM      5  C   LIG    1        4.232   0.041  -2.459  0.00  0.00    +0.060 C 
ATOM      6  C   LIG    1        2.785  -0.455  -2.470  0.00  0.00    +0.170 C 
ATOM      7  C   LIG    1        2.769  -1.977  -2.633  0.00  0.00    +0.070 C 
ATOM      8  H   LIG    1        2.185   0.909  -1.079  0.00  0.00    +0.420 HD
ENDROOT
BRANCH   1   9
ATOM      9  C   LIG    1        0.718  -0.497  -1.257  0.00  0.00    +0.240 C 
BRANCH   9  11
ATOM     10  C   LIG    1       -0.019   1.526   0.010  0.00  0.00    +0.050 C 
ATOM     11  C   LIG    1        0.002  -0.004   0.002  0.00  0.00    -0.020 C 
BRANCH  11  12
ATOM     12  C   LIG    1       -1.433  -0.534   0.013  0.00  0.00    -0.060 C 
ATOM     13  C   LIG    1       -2.149  -0.040   1.272  0.00  0.00    +0.040 C 
ATOM     14  C   LIG    1       -1.413  -2.063   0.004  0.00  0.00    +0.030 C 
ATOM     15  C   LIG    1       -2.173  -0.027  -1.227  0.00  0.00    +0.030 C 
ENDBRANCH  11  12
ENDBRANCH   9  11
ENDBRANCH   1   9
TORSDOF 3
ENDMDL
MODEL      789
REMARK  Name = ZINC001205100076
REMARK                            x       y       z     vdW  Elec       q    Type
REMARK                         _______ _______ _______ _____ _____    ______ ____
ROOT
ATOM      1  N   LIG    1       -2.006  -0.059   1.402  0.00  0.00    -0.380 N 
ATOM      2  C   LIG    1       -3.380  -0.563   1.528  0.00  0.00    +0.250 C 
ATOM      3  C   LIG    1       -4.016  -0.005   2.803  0.00  0.00    +0.060 C 
ATOM      4  C   LIG    1       -3.194  -0.451   4.015  0.00  0.00    +0.030 C 
ATOM      5  C   LIG    1       -1.746   0.015   3.837  0.00  0.00    +0.060 C 
ATOM      6  C   LIG    1       -1.194  -0.545   2.524  0.00  0.00    +0.160 C 
ATOM      7  C   LIG    1       -1.239  -2.073   2.564  0.00  0.00    +0.070 C 
ATOM      8  H   LIG    1       -2.018   0.950   1.407  0.00  0.00    +0.420 HD
ENDROOT
BRANCH   1   9
ATOM      9  C   LIG    1       -1.427  -0.534   0.139  0.00  0.00    +0.250 C 
BRANCH   9  11
ATOM     10  C   LIG    1       -0.223   1.624  -0.227  0.00  0.00    +0.040 C 
ATOM     11  C   LIG    1       -0.055   0.112  -0.068  0.00  0.00    -0.010 C 
BRANCH  11  12
ATOM     12  C   LIG    1        0.596  -0.464  -1.327  0.00  0.00    -0.060 C 
ATOM     13  C   LIG    1       -0.293  -0.174  -2.539  0.00  0.00    +0.020 C 
ATOM     14  C   LIG    1        0.763  -1.976  -1.168  0.00  0.00    +0.030 C 
ATOM     15  C   LIG    1        1.967   0.182  -1.534  0.00  0.00    +0.040 C 
ENDBRANCH  11  12
ENDBRANCH   9  11
ENDBRANCH   1   9
TORSDOF 3
ENDMDL
MODEL      790
REMARK  Name = ZINC001205100078
REMARK                            x       y       z     vdW  Elec       q    Type
REMARK                         _______ _______ _______ _____ _____    ______ ____
ROOT
ATOM      1  N   LIG    1       -2.114   0.280   1.234  0.00  0.00    -0.390 N 
ATOM      2  C   LIG    1       -1.900   1.726   1.359  0.00  0.00    +0.250 C 
ATOM      3  C   LIG    1       -2.522   2.226   2.665  0.00  0.00    +0.050 C 
ATOM      4  C   LIG    1       -4.024   1.930   2.655  0.00  0.00    +0.040 C 
ATOM      5  C   LIG    1       -4.236   0.427   2.449  0.00  0.00    +0.060 C 
ATOM      6  C   LIG    1       -3.551  -0.005   1.151  0.00  0.00    +0.160 C 
ATOM      7  C   LIG    1       -3.760  -1.506   0.940  0.00  0.00    +0.080 C 
ATOM      8  H   LIG    1       -1.726  -0.188   2.039  0.00  0.00    +0.420 HD
ENDROOT
BRANCH   1   9
ATOM      9  C   LIG    1       -1.449  -0.209   0.018  0.00  0.00    +0.250 C 
BRANCH   9  11
ATOM     10  C   LIG    1        0.716  -0.011  -1.214  0.00  0.00    +0.060 C 
ATOM     11  C   LIG    1        0.066  -0.058   0.170  0.00  0.00    -0.020 C 
BRANCH  11  12
ATOM     12  C   LIG    1        0.621  -1.250   0.953  0.00  0.00    -0.070 C 
ATOM     13  C   LIG    1        0.349  -2.541   0.178  0.00  0.00    +0.030 C 
ATOM     14  C   LIG    1       -0.061  -1.323   2.321  0.00  0.00    +0.030 C 
ATOM     15  C   LIG    1        2.129  -1.078   1.143  0.00  0.00    +0.050 C 
ENDBRANCH  11  12
ENDBRANCH   9  11
ENDBRANCH   1   9
TORSDOF 3
ENDMDL
MODEL      791
REMARK  Name = ZINC000600656245
REMARK                            x       y       z     vdW  Elec       q    Type
REMARK                         _______ _______ _______ _____ _____    ______ ____
ROOT
ATOM      1  N   LIG    1       -2.794  -2.481  -0.014  0.00  0.00    -0.390 N 
ATOM      2  C   LIG    1       -3.155  -2.374  -1.434  0.00  0.00    +0.300 C 
ATOM      3  H   LIG    1       -3.455  -1.959   0.541  0.00  0.00    +0.420 HD
ENDROOT
BRANCH   1   4
ATOM      4  C   LIG    1       -1.445  -1.938   0.190  0.00  0.00    +0.250 C 
BRANCH   4   5
ATOM      5  C   LIG    1       -1.449  -0.437  -0.105  0.00  0.00    -0.030 C 
ATOM      6  C   LIG    1       -0.026   0.111   0.016  0.00  0.00    +0.070 C 
BRANCH   5   8
ATOM      7  C   LIG    1       -2.461   1.758   0.528  0.00  0.00    +0.040 C 
ATOM      8  C   LIG    1       -2.357   0.277   0.898  0.00  0.00    +0.000 C 
ENDBRANCH   5   8
ENDBRANCH   4   5
ENDBRANCH   1   4
BRANCH   1   9
ATOM      9  C   LIG    1       -2.820  -3.893   0.393  0.00  0.00    +0.250 C 
BRANCH   9  10
ATOM     10  C   LIG    1       -4.255  -4.418   0.317  0.00  0.00    -0.020 C 
ATOM     11  C   LIG    1       -4.265  -5.918   0.621  0.00  0.00    +0.030 C 
ATOM     12  C   LIG    1       -5.700  -6.444   0.545  0.00  0.00    +0.020 C 
ATOM     13  C   LIG    1       -6.567  -5.710   1.571  0.00  0.00    +0.010 C 
ATOM     14  C   LIG    1       -6.557  -4.211   1.267  0.00  0.00    +0.020 C 
ATOM     15  C   LIG    1       -5.122  -3.685   1.343  0.00  0.00    +0.000 C 
ENDBRANCH   9  10
ENDBRANCH   1   9
TORSDOF 5
ENDMDL
MODEL      792
REMARK  Name = ZINC000600656246
REMARK                            x       y       z     vdW  Elec       q    Type
REMARK                         _______ _______ _______ _____ _____    ______ ____
ROOT
ATOM      1  N   LIG    1       -2.774  -2.553  -0.360  0.00  0.00    -0.390 N 
ATOM      2  C   LIG    1       -3.184  -2.157  -1.714  0.00  0.00    +0.300 C 
ATOM      3  H   LIG    1       -3.450  -2.216   0.308  0.00  0.00    +0.420 HD
ENDROOT
BRANCH   1   4
ATOM      4  C   LIG    1       -1.457  -1.977  -0.059  0.00  0.00    +0.250 C 
BRANCH   4   5
ATOM      5  C   LIG    1       -1.565  -0.451  -0.019  0.00  0.00    -0.030 C 
ATOM      6  C   LIG    1       -2.465  -0.035   1.146  0.00  0.00    +0.040 C 
BRANCH   5   8
ATOM      7  C   LIG    1       -0.264   1.679   0.086  0.00  0.00    +0.030 C 
ATOM      8  C   LIG    1       -0.173   0.154   0.171  0.00  0.00    +0.020 C 
ENDBRANCH   5   8
ENDBRANCH   4   5
ENDBRANCH   1   4
BRANCH   1   9
ATOM      9  C   LIG    1       -2.697  -4.018  -0.281  0.00  0.00    +0.250 C 
BRANCH   9  10
ATOM     10  C   LIG    1       -4.096  -4.612  -0.454  0.00  0.00    -0.020 C 
ATOM     11  C   LIG    1       -3.999  -6.138  -0.507  0.00  0.00    +0.030 C 
ATOM     12  C   LIG    1       -5.398  -6.733  -0.679  0.00  0.00    +0.020 C 
ATOM     13  C   LIG    1       -6.278  -6.318   0.502  0.00  0.00    +0.010 C 
ATOM     14  C   LIG    1       -6.375  -4.792   0.555  0.00  0.00    +0.020 C 
ATOM     15  C   LIG    1       -4.975  -4.198   0.728  0.00  0.00    +0.000 C 
ENDBRANCH   9  10
ENDBRANCH   1   9
TORSDOF 5
ENDMDL
MODEL      793
REMARK  Name = ZINC000678140293
REMARK                            x       y       z     vdW  Elec       q    Type
REMARK                         _______ _______ _______ _____ _____    ______ ____
ROOT
ATOM      1  N   LIG    1       -0.351  -2.962   2.092  0.00  0.00    -0.390 N 
ATOM      2  C   LIG    1       -0.749  -2.297   0.845  0.00  0.00    +0.320 C 
ATOM      3  H   LIG    1       -0.910  -2.610   2.855  0.00  0.00    +0.420 HD
ENDROOT
BRANCH   1   4
ATOM      4  C   LIG    1        1.068  -2.693   2.361  0.00  0.00    +0.160 C 
ATOM      5  C   LIG    1        1.927  -3.373   1.293  0.00  0.00    +0.080 C 
BRANCH   4   6
ATOM      6  C   LIG    1        1.440  -3.241   3.740  0.00  0.00    +0.050 C 
BRANCH   6   8
ATOM      7  C   LIG    1        0.989  -3.067   6.191  0.00  0.00    +0.040 C 
ATOM      8  C   LIG    1        0.687  -2.461   4.819  0.00  0.00    -0.010 C 
ENDBRANCH   6   8
ENDBRANCH   4   6
ENDBRANCH   1   4
BRANCH   1   9
ATOM      9  C   LIG    1       -0.558  -4.411   1.962  0.00  0.00    +0.240 C 
BRANCH   9  10
ATOM     10  C   LIG    1       -2.051  -4.700   1.796  0.00  0.00    -0.010 C 
BRANCH  10  11
ATOM     11  C   LIG    1       -2.799  -4.257   3.055  0.00  0.00    +0.020 C 
ATOM     12  C   LIG    1       -3.187  -2.782   2.925  0.00  0.00    +0.020 C 
ENDBRANCH  10  11
BRANCH  10  13
ATOM     13  C   LIG    1       -2.259  -6.200   1.581  0.00  0.00    +0.020 C 
ATOM     14  C   LIG    1       -3.736  -6.474   1.291  0.00  0.00    +0.030 C 
ENDBRANCH  10  13
ENDBRANCH   9  10
ENDBRANCH   1   9
TORSDOF 7
ENDMDL
MODEL      794
REMARK  Name = ZINC000678140295
REMARK                            x       y       z     vdW  Elec       q    Type
REMARK                         _______ _______ _______ _____ _____    ______ ____
ROOT
ATOM      1  N   LIG    1        1.073  -1.773   0.025  0.00  0.00    -0.390 N 
ATOM      2  C   LIG    1        0.935  -3.226   0.195  0.00  0.00    +0.310 C 
ATOM      3  H   LIG    1        2.028  -1.503   0.207  0.00  0.00    +0.420 HD
ENDROOT
BRANCH   1   4
ATOM      4  C   LIG    1        0.180  -1.083   0.965  0.00  0.00    +0.160 C 
ATOM      5  C   LIG    1       -1.247  -1.603   0.788  0.00  0.00    +0.090 C 
BRANCH   4   6
ATOM      6  C   LIG    1        0.646  -1.349   2.398  0.00  0.00    +0.050 C 
BRANCH   6   8
ATOM      7  C   LIG    1        2.430  -0.868   4.080  0.00  0.00    +0.040 C 
ATOM      8  C   LIG    1        2.023  -0.718   2.612  0.00  0.00    -0.000 C 
ENDBRANCH   6   8
ENDBRANCH   4   6
ENDBRANCH   1   4
BRANCH   1   9
ATOM      9  C   LIG    1        0.714  -1.405  -1.351  0.00  0.00    +0.250 C 
BRANCH   9  10
ATOM     10  C   LIG    1        1.682  -2.077  -2.328  0.00  0.00    -0.020 C 
BRANCH  10  11
ATOM     11  C   LIG    1        3.099  -1.554  -2.083  0.00  0.00    +0.020 C 
ATOM     12  C   LIG    1        3.783  -2.416  -1.019  0.00  0.00    +0.020 C 
ENDBRANCH  10  11
BRANCH  10  13
ATOM     13  C   LIG    1        1.262  -1.756  -3.764  0.00  0.00    +0.020 C 
ATOM     14  C   LIG    1        2.152  -2.527  -4.740  0.00  0.00    +0.030 C 
ENDBRANCH  10  13
ENDBRANCH   9  10
ENDBRANCH   1   9
TORSDOF 7
ENDMDL
MODEL      795
REMARK  Name = ZINC000678157127
REMARK                            x       y       z     vdW  Elec       q    Type
REMARK                         _______ _______ _______ _____ _____    ______ ____
ROOT
ATOM      1  N   LIG    1       -2.561  -2.839  -0.056  0.00  0.00    -0.380 N 
ATOM      2  H   LIG    1       -3.002  -2.891  -0.962  0.00  0.00    +0.420 HD
ENDROOT
BRANCH   1   3
ATOM      3  C   LIG    1       -3.400  -2.046   0.852  0.00  0.00    +0.160 C 
ATOM      4  C   LIG    1       -3.692  -0.684   0.218  0.00  0.00    +0.090 C 
ATOM      5  C   LIG    1       -2.665  -1.843   2.179  0.00  0.00    +0.080 C 
ENDBRANCH   1   3
BRANCH   1   6
ATOM      6  C   LIG    1       -1.244  -2.202  -0.188  0.00  0.00    +0.240 C 
BRANCH   6   7
ATOM      7  C   LIG    1       -0.426  -2.939  -1.250  0.00  0.00    -0.020 C 
BRANCH   7   9
ATOM      8  C   LIG    1       -0.364  -3.640  -3.648  0.00  0.00    +0.040 C 
ATOM      9  C   LIG    1       -1.113  -2.801  -2.610  0.00  0.00    +0.000 C 
ENDBRANCH   7   9
BRANCH   7  10
ATOM     10  C   LIG    1        0.977  -2.334  -1.324  0.00  0.00    +0.040 C 
ATOM     11  C   LIG    1        1.718  -2.602  -0.013  0.00  0.00    +0.020 C 
ENDBRANCH   7  10
ENDBRANCH   6   7
ENDBRANCH   1   6
BRANCH   1  12
ATOM     12  C   LIG    1       -2.397  -4.194   0.487  0.00  0.00    +0.280 C 
BRANCH  12  13
ATOM     13  C   LIG    1       -3.749  -4.911   0.486  0.00  0.00    -0.090 C 
ATOM     14  C   LIG    1       -3.894  -6.144  -0.408  0.00  0.00    +0.050 C 
ATOM     15  C   LIG    1       -3.809  -6.306   1.111  0.00  0.00    +0.070 C 
ENDBRANCH  12  13
ENDBRANCH   1  12
TORSDOF 7
ENDMDL
MODEL      796
REMARK  Name = ZINC000114732102
REMARK                            x       y       z     vdW  Elec       q    Type
REMARK                         _______ _______ _______ _____ _____    ______ ____
ROOT
ATOM      1  N   LIG    1        1.153  -2.688  -2.538  0.00  0.00    -0.390 N 
ATOM      2  H   LIG    1        1.014  -2.502  -3.520  0.00  0.00    +0.420 HD
ENDROOT
BRANCH   1   3
ATOM      3  C   LIG    1        2.477  -2.203  -2.129  0.00  0.00    +0.240 C 
ATOM      4  C   LIG    1        3.547  -2.812  -3.038  0.00  0.00    +0.080 C 
ENDBRANCH   1   3
BRANCH   1   5
ATOM      5  C   LIG    1        0.116  -1.998  -1.758  0.00  0.00    +0.240 C 
BRANCH   5   6
ATOM      6  C   LIG    1        0.126  -0.508  -2.104  0.00  0.00    +0.030 C 
BRANCH   6   8
ATOM      7  C   LIG    1       -0.944   1.701  -1.638  0.00  0.00    +0.030 C 
ATOM      8  C   LIG    1       -0.954   0.211  -1.292  0.00  0.00    +0.020 C 
ENDBRANCH   6   8
ENDBRANCH   5   6
ENDBRANCH   1   5
BRANCH   1   9
ATOM      9  C   LIG    1        1.065  -4.135  -2.296  0.00  0.00    +0.250 C 
BRANCH   9  10
ATOM     10  C   LIG    1       -0.262  -4.664  -2.844  0.00  0.00    -0.020 C 
BRANCH  10  11
ATOM     11  C   LIG    1       -0.398  -6.149  -2.504  0.00  0.00    +0.030 C 
ATOM     12  C   LIG    1       -1.786  -6.642  -2.918  0.00  0.00    +0.030 C 
ENDBRANCH  10  11
BRANCH  10  13
ATOM     13  C   LIG    1       -0.296  -4.482  -4.362  0.00  0.00    -0.000 C 
ATOM     14  C   LIG    1        0.802  -5.334  -5.002  0.00  0.00    +0.020 C 
ENDBRANCH  10  13
ENDBRANCH   9  10
ENDBRANCH   1   9
TORSDOF 8
ENDMDL
MODEL      797
REMARK  Name = ZINC000607726263
REMARK                            x       y       z     vdW  Elec       q    Type
REMARK                         _______ _______ _______ _____ _____    ______ ____
ROOT
ATOM      1  N   LIG    1       -0.092  -0.235   2.438  0.00  0.00    -0.390 N 
ATOM      2  C   LIG    1        0.507  -0.728   3.686  0.00  0.00    +0.310 C 
ATOM      3  H   LIG    1       -1.006  -0.646   2.319  0.00  0.00    +0.420 HD
ENDROOT
BRANCH   1   4
ATOM      4  C   LIG    1        0.764  -0.607   1.304  0.00  0.00    +0.170 C 
ATOM      5  C   LIG    1        0.967  -2.123   1.293  0.00  0.00    +0.080 C 
BRANCH   4   7
ATOM      6  C   LIG    1        1.001  -0.531  -1.183  0.00  0.00    +0.070 C 
ATOM      7  C   LIG    1        0.096  -0.172  -0.003  0.00  0.00    -0.020 C 
ATOM      8  C   LIG    1       -1.246  -0.892  -0.153  0.00  0.00    +0.040 C 
ENDBRANCH   4   7
ENDBRANCH   1   4
BRANCH   1   9
ATOM      9  C   LIG    1       -0.217   1.227   2.499  0.00  0.00    +0.240 C 
BRANCH   9  10
ATOM     10  C   LIG    1       -1.210   1.609   3.599  0.00  0.00    +0.040 C 
BRANCH  10  11
ATOM     11  C   LIG    1       -1.339   3.132   3.663  0.00  0.00    +0.000 C 
ATOM     12  C   LIG    1       -2.083   3.666   2.414  0.00  0.00    +0.010 C 
ATOM     13  C   LIG    1       -2.647   5.022   2.905  0.00  0.00    +0.010 C 
ATOM     14  C   LIG    1       -3.070   4.750   4.364  0.00  0.00    +0.010 C 
ATOM     15  C   LIG    1       -2.238   3.549   4.845  0.00  0.00    +0.020 C 
ENDBRANCH  10  11
ENDBRANCH   9  10
ENDBRANCH   1   9
TORSDOF 5
ENDMDL
MODEL      798
REMARK  Name = ZINC000607726262
REMARK                            x       y       z     vdW  Elec       q    Type
REMARK                         _______ _______ _______ _____ _____    ______ ____
ROOT
ATOM      1  N   LIG    1       -0.010  -0.139   2.447  0.00  0.00    -0.380 N 
ATOM      2  C   LIG    1       -1.349  -0.743   2.395  0.00  0.00    +0.320 C 
ATOM      3  H   LIG    1       -0.096   0.865   2.494  0.00  0.00    +0.420 HD
ENDROOT
BRANCH   1   4
ATOM      4  C   LIG    1        0.742  -0.511   1.242  0.00  0.00    +0.170 C 
ATOM      5  C   LIG    1        2.136   0.118   1.296  0.00  0.00    +0.080 C 
BRANCH   4   7
ATOM      6  C   LIG    1       -0.019   1.526   0.010  0.00  0.00    +0.040 C 
ATOM      7  C   LIG    1        0.002  -0.004   0.002  0.00  0.00    -0.020 C 
ATOM      8  C   LIG    1        0.718  -0.497  -1.257  0.00  0.00    +0.070 C 
ENDBRANCH   4   7
ENDBRANCH   1   4
BRANCH   1   9
ATOM      9  C   LIG    1        0.700  -0.626   3.637  0.00  0.00    +0.240 C 
BRANCH   9  10
ATOM     10  C   LIG    1       -0.016  -0.132   4.896  0.00  0.00    +0.040 C 
BRANCH  10  11
ATOM     11  C   LIG    1        0.724  -0.639   6.136  0.00  0.00    +0.000 C 
ATOM     12  C   LIG    1        2.087   0.081   6.286  0.00  0.00    +0.010 C 
ATOM     13  C   LIG    1        2.386  -0.065   7.798  0.00  0.00    +0.010 C 
ATOM     14  C   LIG    1        1.010   0.104   8.474  0.00  0.00    +0.010 C 
ATOM     15  C   LIG    1       -0.047  -0.261   7.417  0.00  0.00    +0.020 C 
ENDBRANCH  10  11
ENDBRANCH   9  10
ENDBRANCH   1   9
TORSDOF 5
ENDMDL
MODEL      799
REMARK  Name = ZINC000607726217
REMARK                            x       y       z     vdW  Elec       q    Type
REMARK                         _______ _______ _______ _____ _____    ______ ____
ROOT
ATOM      1  N   LIG    1        1.654  -2.648   2.457  0.00  0.00    -0.390 N 
ATOM      2  H   LIG    1        2.578  -2.344   2.726  0.00  0.00    +0.420 HD
ENDROOT
BRANCH   1   3
ATOM      3  C   LIG    1        0.699  -2.311   3.522  0.00  0.00    +0.240 C 
ATOM      4  C   LIG    1        1.195  -2.882   4.851  0.00  0.00    +0.080 C 
ENDBRANCH   1   3
BRANCH   1   5
ATOM      5  C   LIG    1        1.259  -1.974   1.213  0.00  0.00    +0.250 C 
BRANCH   5   6
ATOM      6  C   LIG    1        1.374  -0.459   1.395  0.00  0.00    +0.030 C 
BRANCH   6   8
ATOM      7  C   LIG    1        1.077   1.758   0.282  0.00  0.00    +0.030 C 
ATOM      8  C   LIG    1        0.962   0.243   0.100  0.00  0.00    +0.020 C 
ENDBRANCH   6   8
ENDBRANCH   5   6
ENDBRANCH   1   5
BRANCH   1   9
ATOM      9  C   LIG    1        1.659  -4.102   2.246  0.00  0.00    +0.240 C 
BRANCH   9  10
ATOM     10  C   LIG    1        2.743  -4.466   1.230  0.00  0.00    +0.040 C 
BRANCH  10  11
ATOM     11  C   LIG    1        2.834  -5.988   1.105  0.00  0.00    +0.000 C 
ATOM     12  C   LIG    1        1.579  -6.550   0.393  0.00  0.00    +0.010 C 
ATOM     13  C   LIG    1        2.084  -7.899  -0.177  0.00  0.00    +0.010 C 
ATOM     14  C   LIG    1        3.527  -7.600  -0.635  0.00  0.00    +0.010 C 
ATOM     15  C   LIG    1        4.004  -6.385   0.180  0.00  0.00    +0.020 C 
ENDBRANCH  10  11
ENDBRANCH   9  10
ENDBRANCH   1   9
TORSDOF 7
ENDMDL
MODEL      800
REMARK  Name = ZINC000678259160
REMARK                            x       y       z     vdW  Elec       q    Type
REMARK                         _______ _______ _______ _____ _____    ______ ____
ROOT
ATOM      1  N   LIG    1        2.010  -2.201  -0.141  0.00  0.00    -0.380 N 
ATOM      2  C   LIG    1        3.300  -1.514   0.003  0.00  0.00    +0.330 C 
ATOM      3  H   LIG    1        1.524  -1.839  -0.948  0.00  0.00    +0.420 HD
ENDROOT
BRANCH   1   4
ATOM      4  C   LIG    1        2.238  -3.642  -0.314  0.00  0.00    +0.050 C 
ATOM      5  C   LIG    1        0.894  -4.357  -0.464  0.00  0.00    +0.090 C 
ATOM      6  C   LIG    1        2.974  -4.191   0.910  0.00  0.00    +0.090 C 
BRANCH   4   7
ATOM      7  C   LIG    1        3.084  -3.878  -1.566  0.00  0.00    +0.040 C 
ATOM      8  C   LIG    1        3.322  -5.379  -1.746  0.00  0.00    +0.060 C 
ENDBRANCH   4   7
ENDBRANCH   1   4
BRANCH   1   9
ATOM      9  C   LIG    1        1.197  -1.974   1.061  0.00  0.00    +0.240 C 
BRANCH   9  10
ATOM     10  C   LIG    1        0.855  -0.487   1.172  0.00  0.00    -0.020 C 
BRANCH  10  12
ATOM     11  C   LIG    1       -0.267   1.432   0.031  0.00  0.00    +0.040 C 
ATOM     12  C   LIG    1       -0.038  -0.081  -0.002  0.00  0.00    +0.000 C 
ENDBRANCH  10  12
BRANCH  10  13
ATOM     13  C   LIG    1        0.116  -0.231   2.488  0.00  0.00    +0.040 C 
ATOM     14  C   LIG    1        1.057  -0.504   3.663  0.00  0.00    +0.020 C 
ENDBRANCH  10  13
ENDBRANCH   9  10
ENDBRANCH   1   9
TORSDOF 6
ENDMDL
MODEL      801
REMARK  Name = ZINC000678277747
REMARK                            x       y       z     vdW  Elec       q    Type
REMARK                         _______ _______ _______ _____ _____    ______ ____
ROOT
ATOM      1  N   LIG    1       -2.814  -2.300   0.283  0.00  0.00    -0.380 N 
ATOM      2  H   LIG    1       -3.485  -1.712   0.755  0.00  0.00    +0.420 HD
ENDROOT
BRANCH   1   3
ATOM      3  C   LIG    1       -2.829  -3.640   0.886  0.00  0.00    +0.150 C 
ATOM      4  C   LIG    1       -2.891  -3.623   2.422  0.00  0.00    +0.050 C 
ATOM      5  C   LIG    1       -3.867  -4.807   2.317  0.00  0.00    +0.060 C 
ATOM      6  C   LIG    1       -4.225  -4.286   0.915  0.00  0.00    +0.060 C 
ENDBRANCH   1   3
BRANCH   1   7
ATOM      7  C   LIG    1       -3.165  -2.399  -1.140  0.00  0.00    +0.160 C 
ATOM      8  C   LIG    1       -4.626  -2.833  -1.276  0.00  0.00    +0.080 C 
ATOM      9  C   LIG    1       -2.261  -3.431  -1.817  0.00  0.00    +0.080 C 
ENDBRANCH   1   7
BRANCH   1  10
ATOM     10  C   LIG    1       -1.472  -1.718   0.417  0.00  0.00    +0.250 C 
BRANCH  10  11
ATOM     11  C   LIG    1       -1.492  -0.270  -0.077  0.00  0.00    -0.020 C 
BRANCH  11  13
ATOM     12  C   LIG    1       -2.538   1.976   0.246  0.00  0.00    +0.040 C 
ATOM     13  C   LIG    1       -2.420   0.560   0.813  0.00  0.00    +0.000 C 
ENDBRANCH  11  13
BRANCH  11  14
ATOM     14  C   LIG    1       -0.077   0.308  -0.019  0.00  0.00    +0.040 C 
ATOM     15  C   LIG    1        0.818  -0.431  -1.016  0.00  0.00    +0.020 C 
ENDBRANCH  11  14
ENDBRANCH  10  11
ENDBRANCH   1  10
TORSDOF 6
ENDMDL
MODEL      802
REMARK  Name = ZINC000678333741
REMARK                            x       y       z     vdW  Elec       q    Type
REMARK                         _______ _______ _______ _____ _____    ______ ____
ROOT
ATOM      1  N   LIG    1        2.010  -2.201  -0.141  0.00  0.00    -0.380 N 
ATOM      2  C   LIG    1        3.300  -1.514   0.003  0.00  0.00    +0.310 C 
ATOM      3  H   LIG    1        1.524  -1.839  -0.948  0.00  0.00    +0.420 HD
ENDROOT
BRANCH   1   4
ATOM      4  C   LIG    1        2.238  -3.642  -0.314  0.00  0.00    +0.210 C 
ATOM      5  C   LIG    1        0.894  -4.357  -0.464  0.00  0.00    +0.090 C 
BRANCH   4   6
ATOM      6  C   LIG    1        3.084  -3.878  -1.566  0.00  0.00    -0.180 C 
ATOM      7  C   LIG    1        4.512  -4.391  -1.368  0.00  0.00    +0.050 C 
ATOM      8  C   LIG    1        2.836  -2.908  -2.723  0.00  0.00    +0.080 C 
ATOM      9  C   LIG    1        3.433  -5.325  -1.920  0.00  0.00    +0.080 C 
ENDBRANCH   4   6
ENDBRANCH   1   4
BRANCH   1  10
ATOM     10  C   LIG    1        1.197  -1.974   1.061  0.00  0.00    +0.240 C 
BRANCH  10  11
ATOM     11  C   LIG    1        0.855  -0.487   1.172  0.00  0.00    -0.010 C 
BRANCH  11  13
ATOM     12  C   LIG    1       -0.267   1.432   0.031  0.00  0.00    +0.040 C 
ATOM     13  C   LIG    1       -0.038  -0.081  -0.002  0.00  0.00    +0.000 C 
ENDBRANCH  11  13
BRANCH  11  14
ATOM     14  C   LIG    1        0.116  -0.231   2.488  0.00  0.00    +0.040 C 
ATOM     15  C   LIG    1        1.057  -0.504   3.663  0.00  0.00    +0.020 C 
ENDBRANCH  11  14
ENDBRANCH  10  11
ENDBRANCH   1  10
TORSDOF 6
ENDMDL
MODEL      803
REMARK  Name = ZINC000678333730
REMARK                            x       y       z     vdW  Elec       q    Type
REMARK                         _______ _______ _______ _____ _____    ______ ____
ROOT
ATOM      1  N   LIG    1        2.201  -1.845   0.124  0.00  0.00    -0.380 N 
ATOM      2  C   LIG    1        3.580  -1.549   0.536  0.00  0.00    +0.320 C 
ATOM      3  H   LIG    1        1.984  -1.333  -0.718  0.00  0.00    +0.420 HD
ENDROOT
BRANCH   1   4
ATOM      4  C   LIG    1        2.064  -3.286  -0.129  0.00  0.00    +0.210 C 
ATOM      5  C   LIG    1        2.517  -4.066   1.107  0.00  0.00    +0.090 C 
BRANCH   4   6
ATOM      6  C   LIG    1        2.933  -3.678  -1.326  0.00  0.00    -0.180 C 
ATOM      7  C   LIG    1        4.218  -4.458  -1.041  0.00  0.00    +0.050 C 
ATOM      8  C   LIG    1        2.957  -2.674  -2.481  0.00  0.00    +0.080 C 
ATOM      9  C   LIG    1        3.020  -5.163  -1.680  0.00  0.00    +0.080 C 
ENDBRANCH   4   6
ENDBRANCH   1   4
BRANCH   1  10
ATOM     10  C   LIG    1        1.274  -1.446   1.192  0.00  0.00    +0.250 C 
BRANCH  10  11
ATOM     11  C   LIG    1        1.300   0.076   1.347  0.00  0.00    -0.010 C 
BRANCH  11  13
ATOM     12  C   LIG    1        0.910   2.247   0.174  0.00  0.00    +0.040 C 
ATOM     13  C   LIG    1        0.756   0.727   0.075  0.00  0.00    +0.000 C 
ENDBRANCH  11  13
BRANCH  11  14
ATOM     14  C   LIG    1        0.432   0.482   2.540  0.00  0.00    +0.040 C 
ATOM     15  C   LIG    1        1.055  -0.054   3.830  0.00  0.00    +0.020 C 
ENDBRANCH  11  14
ENDBRANCH  10  11
ENDBRANCH   1  10
TORSDOF 6
ENDMDL
MODEL      804
REMARK  Name = ZINC000645005412
REMARK                            x       y       z     vdW  Elec       q    Type
REMARK                         _______ _______ _______ _____ _____    ______ ____
ROOT
ATOM      1  N   LIG    1       -2.493  -0.080   1.588  0.00  0.00    -0.380 N 
ATOM      2  H   LIG    1       -2.345  -0.518   2.484  0.00  0.00    +0.420 HD
ENDROOT
BRANCH   1   3
ATOM      3  C   LIG    1       -2.537   1.379   1.757  0.00  0.00    +0.240 C 
ATOM      4  C   LIG    1       -3.148   1.716   3.118  0.00  0.00    +0.070 C 
ENDBRANCH   1   3
BRANCH   1   5
ATOM      5  C   LIG    1       -1.391  -0.435   0.682  0.00  0.00    +0.160 C 
BRANCH   5   7
ATOM      6  C   LIG    1       -2.585  -0.648  -1.502  0.00  0.00    +0.030 C 
ATOM      7  C   LIG    1       -1.623   0.215  -0.683  0.00  0.00    +0.040 C 
ENDBRANCH   5   7
BRANCH   5   8
ATOM      8  C   LIG    1       -0.069   0.066   1.268  0.00  0.00    +0.050 C 
ATOM      9  C   LIG    1        0.159  -0.579   2.636  0.00  0.00    +0.040 C 
ENDBRANCH   5   8
ENDBRANCH   1   5
BRANCH   1  10
ATOM     10  C   LIG    1       -3.764  -0.545   1.018  0.00  0.00    +0.270 C 
BRANCH  10  11
ATOM     11  C   LIG    1       -4.880  -0.368   2.049  0.00  0.00    -0.120 C 
ATOM     12  C   LIG    1       -5.477   1.049   2.073  0.00  0.00    +0.040 C 
ATOM     13  C   LIG    1       -6.470   0.564   1.003  0.00  0.00    +0.010 C 
ATOM     14  C   LIG    1       -4.500  -0.898   3.433  0.00  0.00    +0.050 C 
ATOM     15  C   LIG    1       -6.255  -0.854   1.559  0.00  0.00    +0.060 C 
ENDBRANCH  10  11
ENDBRANCH   1  10
TORSDOF 6
ENDMDL
MODEL      805
REMARK  Name = ZINC001169092575
REMARK                            x       y       z     vdW  Elec       q    Type
REMARK                         _______ _______ _______ _____ _____    ______ ____
ROOT
ATOM      1  N   LIG    1        1.702  -2.605  -0.160  0.00  0.00    -0.380 N 
ATOM      2  C   LIG    1        1.117  -2.327   1.157  0.00  0.00    +0.250 C 
ATOM      3  C   LIG    1        2.096  -2.749   2.254  0.00  0.00    +0.060 C 
ATOM      4  C   LIG    1        2.382  -4.248   2.126  0.00  0.00    +0.000 C 
ATOM      5  C   LIG    1        2.923  -4.537   0.723  0.00  0.00    -0.080 C 
ATOM      6  C   LIG    1        3.140  -6.043   0.558  0.00  0.00    +0.070 C 
ATOM      7  C   LIG    1        4.253  -3.805   0.527  0.00  0.00    +0.040 C 
ATOM      8  C   LIG    1        3.420  -4.662   3.171  0.00  0.00    +0.040 C 
ATOM      9  C   LIG    1        1.912  -4.049  -0.317  0.00  0.00    +0.250 C 
ATOM     10  H   LIG    1        2.588  -2.127  -0.241  0.00  0.00    +0.420 HD
ENDROOT
BRANCH   1  11
ATOM     11  C   LIG    1        0.792  -2.127  -1.210  0.00  0.00    +0.160 C 
ATOM     12  C   LIG    1       -0.498  -2.949  -1.179  0.00  0.00    +0.080 C 
BRANCH  11  13
ATOM     13  C   LIG    1        1.464  -2.281  -2.576  0.00  0.00    +0.050 C 
BRANCH  13  15
ATOM     14  C   LIG    1        3.380  -1.547  -4.000  0.00  0.00    +0.040 C 
ATOM     15  C   LIG    1        2.673  -1.348  -2.658  0.00  0.00    -0.010 C 
ENDBRANCH  13  15
ENDBRANCH  11  13
ENDBRANCH   1  11
TORSDOF 3
ENDMDL
MODEL      806
REMARK  Name = ZINC000645080413
REMARK                            x       y       z     vdW  Elec       q    Type
REMARK                         _______ _______ _______ _____ _____    ______ ____
ROOT
ATOM      1  C   LIG    1        1.388  -2.306  -2.517  0.00  0.00    +0.220 C 
ATOM      2  C   LIG    1        1.357  -3.785  -2.668  0.00  0.00    -0.140 C 
ATOM      3  C   LIG    1        2.224  -4.721  -2.795  0.00  0.00    +0.080 C 
ATOM      4  C   LIG    1        3.699  -4.424  -2.961  0.00  0.00    +0.040 C 
ATOM      5  C   LIG    1        3.907  -4.006  -4.426  0.00  0.00    +0.030 C 
ATOM      6  C   LIG    1        2.967  -2.854  -4.765  0.00  0.00    +0.020 C 
ATOM      7  C   LIG    1        3.388  -1.683  -3.901  0.00  0.00    +0.030 C 
ATOM      8  C   LIG    1        2.819  -1.753  -2.485  0.00  0.00    +0.030 C 
ENDROOT
BRANCH   1   9
ATOM      9  N   LIG    1        0.709  -1.941  -1.267  0.00  0.00    -0.380 N 
ATOM     10  H   LIG    1       -0.196  -2.386  -1.234  0.00  0.00    +0.420 HD
BRANCH   9  11
ATOM     11  C   LIG    1        0.539  -0.483  -1.209  0.00  0.00    +0.240 C 
ATOM     12  C   LIG    1       -0.405  -0.035  -2.326  0.00  0.00    +0.080 C 
ENDBRANCH   9  11
BRANCH   9  13
ATOM     13  C   LIG    1        1.515  -2.386  -0.123  0.00  0.00    +0.250 C 
BRANCH  13  15
ATOM     14  C   LIG    1        1.577  -2.614   2.364  0.00  0.00    +0.060 C 
ATOM     15  C   LIG    1        0.737  -2.150   1.173  0.00  0.00    +0.010 C 
ENDBRANCH  13  15
ENDBRANCH   9  13
ENDBRANCH   1   9
TORSDOF 4
ENDMDL
MODEL      807
REMARK  Name = ZINC000645080414
REMARK                            x       y       z     vdW  Elec       q    Type
REMARK                         _______ _______ _______ _____ _____    ______ ____
ROOT
ATOM      1  C   LIG    1        1.232  -2.665  -2.183  0.00  0.00    +0.220 C 
ATOM      2  C   LIG    1        2.687  -2.432  -1.987  0.00  0.00    -0.140 C 
ATOM      3  C   LIG    1        3.724  -3.162  -1.795  0.00  0.00    +0.080 C 
ATOM      4  C   LIG    1        3.658  -4.673  -1.862  0.00  0.00    +0.040 C 
ATOM      5  C   LIG    1        3.642  -5.053  -3.351  0.00  0.00    +0.030 C 
ATOM      6  C   LIG    1        2.503  -4.319  -4.052  0.00  0.00    +0.020 C 
ATOM      7  C   LIG    1        1.216  -4.836  -3.444  0.00  0.00    +0.030 C 
ATOM      8  C   LIG    1        0.865  -4.154  -2.122  0.00  0.00    +0.030 C 
ENDROOT
BRANCH   1   9
ATOM      9  N   LIG    1        0.490  -1.950  -1.136  0.00  0.00    -0.380 N 
ATOM     10  H   LIG    1       -0.496  -2.142  -1.231  0.00  0.00    +0.420 HD
BRANCH   9  11
ATOM     11  C   LIG    1        0.723  -0.506  -1.270  0.00  0.00    +0.240 C 
ATOM     12  C   LIG    1        0.118  -0.012  -2.586  0.00  0.00    +0.080 C 
ENDBRANCH   9  11
BRANCH   9  13
ATOM     13  C   LIG    1        0.951  -2.399   0.185  0.00  0.00    +0.250 C 
BRANCH  13  15
ATOM     14  C   LIG    1        0.576  -2.216   2.648  0.00  0.00    +0.060 C 
ATOM     15  C   LIG    1        0.095  -1.748   1.273  0.00  0.00    +0.010 C 
ENDBRANCH  13  15
ENDBRANCH   9  13
ENDBRANCH   1   9
TORSDOF 4
ENDMDL
MODEL      808
REMARK  Name = ZINC000643255324
REMARK                            x       y       z     vdW  Elec       q    Type
REMARK                         _______ _______ _______ _____ _____    ______ ____
ROOT
ATOM      1  N   LIG    1        0.228  -0.468  -1.215  0.00  0.00    -0.380 N 
ATOM      2  H   LIG    1       -0.352  -0.316  -2.026  0.00  0.00    +0.420 HD
ENDROOT
BRANCH   1   3
ATOM      3  C   LIG    1        1.559   0.108  -1.449  0.00  0.00    +0.160 C 
ATOM      4  C   LIG    1        1.951  -0.094  -2.914  0.00  0.00    +0.070 C 
ATOM      5  C   LIG    1        2.581  -0.587  -0.547  0.00  0.00    +0.080 C 
ENDBRANCH   1   3
BRANCH   1   7
ATOM      6  C   LIG    1       -0.658   1.649  -0.361  0.00  0.00    +0.090 C 
ATOM      7  C   LIG    1       -0.386   0.177  -0.046  0.00  0.00    +0.240 C 
ENDBRANCH   1   7
BRANCH   1   8
ATOM      8  C   LIG    1        0.355  -1.910  -0.967  0.00  0.00    +0.240 C 
ATOM      9  C   LIG    1        0.873  -2.601  -2.230  0.00  0.00    +0.100 C 
BRANCH   8  10
ATOM     10  C   LIG    1       -0.993  -2.478  -0.602  0.00  0.00    -0.140 A 
ATOM     11  C   LIG    1       -2.119  -2.101  -1.209  0.00  0.00    -0.070 A 
ATOM     12  S   LIG    1       -3.481  -2.973  -0.519  0.00  0.00    +0.190 S 
ATOM     13  C   LIG    1       -2.414  -3.825   0.589  0.00  0.00    -0.020 A 
ATOM     14  C   LIG    1       -1.155  -3.434   0.387  0.00  0.00    +0.020 A 
ENDBRANCH   8  10
ENDBRANCH   1   8
TORSDOF 4
ENDMDL
MODEL      809
REMARK  Name = ZINC000643255323
REMARK                            x       y       z     vdW  Elec       q    Type
REMARK                         _______ _______ _______ _____ _____    ______ ____
ROOT
ATOM      1  N   LIG    1        0.631  -0.150  -1.226  0.00  0.00    -0.380 N 
ATOM      2  H   LIG    1        0.610   0.521  -1.978  0.00  0.00    +0.420 HD
ENDROOT
BRANCH   1   3
ATOM      3  C   LIG    1        1.995  -0.672  -1.072  0.00  0.00    +0.160 C 
ATOM      4  C   LIG    1        2.505  -1.173  -2.425  0.00  0.00    +0.080 C 
ATOM      5  C   LIG    1        1.990  -1.828  -0.070  0.00  0.00    +0.080 C 
ENDBRANCH   1   3
BRANCH   1   7
ATOM      6  C   LIG    1        1.159   1.661   0.335  0.00  0.00    +0.080 C 
ATOM      7  C   LIG    1        0.212   0.501   0.023  0.00  0.00    +0.240 C 
ENDBRANCH   1   7
BRANCH   1   8
ATOM      8  C   LIG    1       -0.285  -1.257  -1.532  0.00  0.00    +0.240 C 
ATOM      9  C   LIG    1       -1.727  -0.747  -1.511  0.00  0.00    +0.100 C 
BRANCH   8  10
ATOM     10  C   LIG    1        0.032  -1.809  -2.897  0.00  0.00    -0.130 A 
ATOM     11  C   LIG    1        0.242  -1.026  -3.957  0.00  0.00    -0.060 A 
ATOM     12  S   LIG    1        0.582  -2.021  -5.367  0.00  0.00    +0.190 S 
ATOM     13  C   LIG    1        0.416  -3.487  -4.410  0.00  0.00    -0.020 A 
ATOM     14  C   LIG    1        0.134  -3.167  -3.147  0.00  0.00    +0.010 A 
ENDBRANCH   8  10
ENDBRANCH   1   8
TORSDOF 4
ENDMDL
MODEL      810
REMARK  Name = ZINC000645091336
REMARK                            x       y       z     vdW  Elec       q    Type
REMARK                         _______ _______ _______ _____ _____    ______ ____
ROOT
ATOM      1  C   LIG    1       -2.785  -2.512   0.141  0.00  0.00    -0.020 C 
ATOM      2  C   LIG    1       -3.345  -2.122   1.510  0.00  0.00    +0.040 C 
ENDROOT
BRANCH   1   3
ATOM      3  C   LIG    1       -2.778  -4.036   0.007  0.00  0.00    +0.000 C 
ATOM      4  C   LIG    1       -4.207  -4.566   0.144  0.00  0.00    +0.020 C 
ATOM      5  C   LIG    1       -4.200  -6.090   0.011  0.00  0.00    +0.010 C 
ATOM      6  C   LIG    1       -3.640  -6.480  -1.359  0.00  0.00    +0.010 C 
ATOM      7  C   LIG    1       -2.212  -5.950  -1.495  0.00  0.00    +0.010 C 
ATOM      8  C   LIG    1       -2.218  -4.425  -1.362  0.00  0.00    +0.010 C 
ENDBRANCH   1   3
BRANCH   1   9
ATOM      9  C   LIG    1       -1.356  -1.981   0.004  0.00  0.00    +0.240 C 
BRANCH   9  10
ATOM     10  N   LIG    1       -1.376  -0.512   0.012  0.00  0.00    -0.380 N 
ATOM     11  C   LIG    1       -2.087  -0.026  -1.178  0.00  0.00    +0.310 C 
ATOM     12  H   LIG    1       -1.848  -0.187   0.843  0.00  0.00    +0.420 HD
BRANCH  10  14
ATOM     13  C   LIG    1       -0.019   1.526   0.010  0.00  0.00    +0.090 C 
ATOM     14  C   LIG    1        0.002  -0.004   0.002  0.00  0.00    +0.160 C 
ATOM     15  C   LIG    1        0.742  -0.511   1.242  0.00  0.00    +0.080 C 
ENDBRANCH  10  14
ENDBRANCH   9  10
ENDBRANCH   1   9
TORSDOF 4
ENDMDL
MODEL      811
REMARK  Name = ZINC001169301473
REMARK                            x       y       z     vdW  Elec       q    Type
REMARK                         _______ _______ _______ _____ _____    ______ ____
ROOT
ATOM      1  N   LIG    1        2.841  -0.442  -2.476  0.00  0.00    -0.380 N 
ATOM      2  C   LIG    1        2.200   0.140  -3.662  0.00  0.00    +0.250 C 
ATOM      3  C   LIG    1        2.860  -0.414  -4.926  0.00  0.00    +0.050 C 
ATOM      4  C   LIG    1        4.348  -0.051  -4.919  0.00  0.00    +0.040 C 
ATOM      5  C   LIG    1        4.991  -0.599  -3.642  0.00  0.00    -0.080 C 
ATOM      6  C   LIG    1        6.460  -0.175  -3.587  0.00  0.00    +0.070 C 
ATOM      7  C   LIG    1        4.898  -2.126  -3.638  0.00  0.00    +0.030 C 
ATOM      8  C   LIG    1        4.251  -0.037  -2.426  0.00  0.00    +0.260 C 
ATOM      9  H   LIG    1        2.783  -1.448  -2.523  0.00  0.00    +0.420 HD
ENDROOT
BRANCH   1  10
ATOM     10  C   LIG    1        2.154   0.032  -1.268  0.00  0.00    +0.240 C 
BRANCH  10  11
ATOM     11  C   LIG    1        0.718  -0.497  -1.257  0.00  0.00    +0.040 C 
BRANCH  11  13
ATOM     12  C   LIG    1       -0.019   1.526   0.010  0.00  0.00    +0.030 C 
ATOM     13  C   LIG    1        0.002  -0.004   0.002  0.00  0.00    -0.060 C 
ATOM     14  C   LIG    1       -1.433  -0.534   0.013  0.00  0.00    +0.040 C 
ATOM     15  C   LIG    1        0.742  -0.511   1.242  0.00  0.00    +0.030 C 
ENDBRANCH  11  13
ENDBRANCH  10  11
ENDBRANCH   1  10
TORSDOF 3
ENDMDL
MODEL      812
REMARK  Name = ZINC000645091335
REMARK                            x       y       z     vdW  Elec       q    Type
REMARK                         _______ _______ _______ _____ _____    ______ ____
ROOT
ATOM      1  C   LIG    1       -2.765  -2.263   0.037  0.00  0.00    -0.010 C 
ATOM      2  C   LIG    1       -3.890  -1.830  -0.905  0.00  0.00    +0.070 C 
ENDROOT
BRANCH   1   3
ATOM      3  C   LIG    1       -2.695  -3.790   0.081  0.00  0.00    -0.020 C 
ATOM      4  C   LIG    1       -2.133  -4.237   1.432  0.00  0.00    +0.000 C 
ATOM      5  C   LIG    1       -2.063  -5.764   1.476  0.00  0.00    +0.020 C 
ATOM      6  C   LIG    1       -3.467  -6.345   1.290  0.00  0.00    +0.020 C 
ATOM      7  C   LIG    1       -4.029  -5.898  -0.061  0.00  0.00    +0.000 C 
ATOM      8  C   LIG    1       -4.098  -4.371  -0.105  0.00  0.00    +0.030 C 
ENDBRANCH   1   3
BRANCH   1   9
ATOM      9  C   LIG    1       -1.433  -1.706  -0.470  0.00  0.00    +0.250 C 
BRANCH   9  10
ATOM     10  N   LIG    1       -0.372  -2.015   0.498  0.00  0.00    -0.390 N 
ATOM     11  C   LIG    1       -0.670  -1.358   1.777  0.00  0.00    +0.320 C 
ATOM     12  H   LIG    1       -0.324  -3.014   0.636  0.00  0.00    +0.420 HD
BRANCH  10  14
ATOM     13  C   LIG    1        2.020  -1.852   0.993  0.00  0.00    +0.090 C 
ATOM     14  C   LIG    1        0.915  -1.529  -0.015  0.00  0.00    +0.160 C 
ATOM     15  C   LIG    1        1.225  -2.213  -1.347  0.00  0.00    +0.080 C 
ENDBRANCH  10  14
ENDBRANCH   9  10
ENDBRANCH   1   9
TORSDOF 4
ENDMDL
MODEL      813
REMARK  Name = ZINC000308413655
REMARK                            x       y       z     vdW  Elec       q    Type
REMARK                         _______ _______ _______ _____ _____    ______ ____
ROOT
ATOM      1  N   LIG    1        2.163  -4.524  -3.741  0.00  0.00    -0.390 N 
ATOM      2  C   LIG    1        3.574  -4.117  -3.693  0.00  0.00    +0.310 C 
ATOM      3  H   LIG    1        1.725  -4.123  -4.556  0.00  0.00    +0.420 HD
ENDROOT
BRANCH   1   4
ATOM      4  C   LIG    1        1.476  -4.051  -2.532  0.00  0.00    +0.250 C 
BRANCH   4   5
ATOM      5  C   LIG    1        1.455  -2.521  -2.524  0.00  0.00    +0.030 C 
BRANCH   5   6
ATOM      6  C   LIG    1        0.739  -2.027  -1.265  0.00  0.00    +0.020 C 
BRANCH   6   7
ATOM      7  C   LIG    1        0.718  -0.497  -1.257  0.00  0.00    +0.020 C 
BRANCH   7   9
ATOM      8  C   LIG    1       -0.019   1.526   0.010  0.00  0.00    +0.020 C 
ATOM      9  C   LIG    1        0.002  -0.004   0.002  0.00  0.00    -0.010 C 
ENDBRANCH   7   9
ENDBRANCH   6   7
ENDBRANCH   5   6
ENDBRANCH   4   5
ENDBRANCH   1   4
BRANCH   1  10
ATOM     10  C   LIG    1        2.079  -5.989  -3.810  0.00  0.00    +0.250 C 
BRANCH  10  11
ATOM     11  C   LIG    1        2.685  -6.473  -5.129  0.00  0.00    -0.030 C 
ATOM     12  C   LIG    1        1.838  -5.964  -6.297  0.00  0.00    +0.040 C 
BRANCH  11  13
ATOM     13  C   LIG    1        2.711  -8.003  -5.147  0.00  0.00    +0.020 C 
ATOM     14  C   LIG    1        3.429  -8.486  -6.409  0.00  0.00    +0.030 C 
ENDBRANCH  11  13
ENDBRANCH  10  11
ENDBRANCH   1  10
TORSDOF 8
ENDMDL
MODEL      814
REMARK  Name = ZINC000602862335
REMARK                            x       y       z     vdW  Elec       q    Type
REMARK                         _______ _______ _______ _____ _____    ______ ____
ROOT
ATOM      1  N   LIG    1       -1.568  -0.585   0.162  0.00  0.00    -0.380 N 
ATOM      2  H   LIG    1       -1.841  -0.289   1.088  0.00  0.00    +0.420 HD
ENDROOT
BRANCH   1   4
ATOM      3  C   LIG    1        0.778  -0.284   0.798  0.00  0.00    +0.080 C 
ATOM      4  C   LIG    1       -0.312   0.078  -0.213  0.00  0.00    +0.160 C 
ATOM      5  C   LIG    1        0.112  -0.385  -1.608  0.00  0.00    +0.080 C 
ENDBRANCH   1   4
BRANCH   1   6
ATOM      6  C   LIG    1       -1.376  -2.041   0.150  0.00  0.00    +0.290 C 
BRANCH   6   7
ATOM      7  C   LIG    1       -0.723  -2.481   1.462  0.00  0.00    -0.090 C 
ATOM      8  C   LIG    1       -1.521  -3.419   2.369  0.00  0.00    +0.040 C 
ATOM      9  C   LIG    1       -0.315  -3.950   1.591  0.00  0.00    +0.070 C 
ENDBRANCH   6   7
ENDBRANCH   1   6
BRANCH   1  10
ATOM     10  C   LIG    1       -2.619  -0.221  -0.797  0.00  0.00    +0.240 C 
BRANCH  10  11
ATOM     11  C   LIG    1       -2.912   1.277  -0.689  0.00  0.00    +0.040 C 
BRANCH  11  12
ATOM     12  C   LIG    1       -4.093   1.632  -1.595  0.00  0.00    -0.060 C 
ATOM     13  C   LIG    1       -3.747   1.283  -3.044  0.00  0.00    +0.030 C 
ATOM     14  C   LIG    1       -4.386   3.130  -1.488  0.00  0.00    +0.040 C 
ATOM     15  C   LIG    1       -5.326   0.838  -1.161  0.00  0.00    +0.030 C 
ENDBRANCH  11  12
ENDBRANCH  10  11
ENDBRANCH   1  10
TORSDOF 6
ENDMDL
MODEL      815
REMARK  Name = ZINC000602860868
REMARK                            x       y       z     vdW  Elec       q    Type
REMARK                         _______ _______ _______ _____ _____    ______ ____
ROOT
ATOM      1  N   LIG    1       -2.807  -2.599   0.017  0.00  0.00    -0.360 N 
ATOM      2  H   LIG    1       -3.463  -2.352  -0.709  0.00  0.00    +0.420 HD
ENDROOT
BRANCH   1   3
ATOM      3  C   LIG    1       -3.366  -2.239   1.326  0.00  0.00    +0.090 C 
ATOM      4  C   LIG    1       -4.585  -1.314   1.343  0.00  0.00    +0.100 C 
ATOM      5  C   LIG    1       -4.745  -2.797   1.683  0.00  0.00    +0.090 C 
ENDBRANCH   1   3
BRANCH   1   6
ATOM      6  C   LIG    1       -1.547  -1.873  -0.194  0.00  0.00    +0.250 C 
BRANCH   6   7
ATOM      7  C   LIG    1       -1.830  -0.372  -0.274  0.00  0.00    +0.020 C 
BRANCH   7   9
ATOM      8  C   LIG    1       -0.801   1.885  -0.573  0.00  0.00    +0.030 C 
ATOM      9  C   LIG    1       -0.518   0.384  -0.493  0.00  0.00    +0.020 C 
ENDBRANCH   7   9
ENDBRANCH   6   7
ENDBRANCH   1   6
BRANCH   1  10
ATOM     10  C   LIG    1       -2.552  -4.045  -0.026  0.00  0.00    +0.250 C 
BRANCH  10  11
ATOM     11  C   LIG    1       -2.110  -4.444  -1.435  0.00  0.00    +0.040 C 
BRANCH  11  12
ATOM     12  C   LIG    1       -1.974  -5.965  -1.516  0.00  0.00    -0.060 C 
ATOM     13  C   LIG    1       -0.931  -6.439  -0.502  0.00  0.00    +0.030 C 
ATOM     14  C   LIG    1       -1.532  -6.364  -2.926  0.00  0.00    +0.040 C 
ATOM     15  C   LIG    1       -3.323  -6.615  -1.202  0.00  0.00    +0.030 C 
ENDBRANCH  11  12
ENDBRANCH  10  11
ENDBRANCH   1  10
TORSDOF 7
ENDMDL
MODEL      816
REMARK  Name = ZINC000602862763
REMARK                            x       y       z     vdW  Elec       q    Type
REMARK                         _______ _______ _______ _____ _____    ______ ____
ROOT
ATOM      1  C   LIG    1        0.718  -0.497  -1.257  0.00  0.00    +0.010 C 
ATOM      2  C   LIG    1       -0.090  -0.099  -2.495  0.00  0.00    +0.040 C 
ATOM      3  C   LIG    1       -1.454  -0.795  -2.448  0.00  0.00    +0.050 C 
ATOM      4  C   LIG    1       -1.245  -2.308  -2.354  0.00  0.00    +0.250 C 
ATOM      5  N   LIG    1       -0.489  -2.627  -1.137  0.00  0.00    -0.380 N 
ATOM      6  H   LIG    1       -0.979  -2.264  -0.333  0.00  0.00    +0.420 HD
ATOM      7  C   LIG    1        0.848  -2.021  -1.207  0.00  0.00    +0.260 C 
ENDROOT
BRANCH   1   9
ATOM      8  C   LIG    1       -0.019   1.526   0.010  0.00  0.00    +0.030 C 
ATOM      9  C   LIG    1        0.002  -0.004   0.002  0.00  0.00    -0.000 C 
ENDBRANCH   1   9
BRANCH   5  10
ATOM     10  C   LIG    1       -0.356  -4.084  -1.012  0.00  0.00    +0.240 C 
BRANCH  10  11
ATOM     11  C   LIG    1       -1.739  -4.706  -0.805  0.00  0.00    +0.040 C 
BRANCH  11  12
ATOM     12  C   LIG    1       -1.601  -6.224  -0.675  0.00  0.00    -0.060 C 
ATOM     13  C   LIG    1       -0.973  -6.790  -1.950  0.00  0.00    +0.030 C 
ATOM     14  C   LIG    1       -2.984  -6.846  -0.468  0.00  0.00    +0.040 C 
ATOM     15  C   LIG    1       -0.709  -6.555   0.523  0.00  0.00    +0.030 C 
ENDBRANCH  11  12
ENDBRANCH  10  11
ENDBRANCH   5  10
TORSDOF 4
ENDMDL
MODEL      817
REMARK  Name = ZINC000602861034
REMARK                            x       y       z     vdW  Elec       q    Type
REMARK                         _______ _______ _______ _____ _____    ______ ____
ROOT
ATOM      1  N   LIG    1       -1.277  -0.686   2.389  0.00  0.00    -0.380 N 
ATOM      2  C   LIG    1       -2.142  -0.206   3.475  0.00  0.00    +0.310 C 
ATOM      3  H   LIG    1       -1.152  -1.683   2.475  0.00  0.00    +0.420 HD
ENDROOT
BRANCH   1   4
ATOM      4  C   LIG    1        0.030  -0.020   2.474  0.00  0.00    +0.160 C 
ATOM      5  C   LIG    1       -0.169   1.497   2.456  0.00  0.00    +0.080 C 
BRANCH   4   6
ATOM      6  C   LIG    1        0.727  -0.427   3.774  0.00  0.00    +0.060 C 
BRANCH   6   8
ATOM      7  C   LIG    1        2.024  -2.242   2.649  0.00  0.00    +0.030 C 
ATOM      8  C   LIG    1        1.010  -1.931   3.751  0.00  0.00    -0.040 C 
ATOM      9  C   LIG    1        1.577  -2.363   5.104  0.00  0.00    +0.050 C 
ENDBRANCH   6   8
ENDBRANCH   4   6
ENDBRANCH   1   4
BRANCH   1  10
ATOM     10  C   LIG    1       -1.900  -0.379   1.095  0.00  0.00    +0.240 C 
BRANCH  10  11
ATOM     11  C   LIG    1       -3.183  -1.197   0.940  0.00  0.00    +0.040 C 
BRANCH  11  12
ATOM     12  C   LIG    1       -3.832  -0.877  -0.408  0.00  0.00    -0.060 C 
ATOM     13  C   LIG    1       -4.167   0.614  -0.473  0.00  0.00    +0.030 C 
ATOM     14  C   LIG    1       -5.116  -1.695  -0.563  0.00  0.00    +0.040 C 
ATOM     15  C   LIG    1       -2.863  -1.232  -1.537  0.00  0.00    +0.030 C 
ENDBRANCH  11  12
ENDBRANCH  10  11
ENDBRANCH   1  10
TORSDOF 6
ENDMDL
MODEL      818
REMARK  Name = ZINC000602860905
REMARK                            x       y       z     vdW  Elec       q    Type
REMARK                         _______ _______ _______ _____ _____    ______ ____
ROOT
ATOM      1  N   LIG    1       -2.031  -0.392  -1.356  0.00  0.00    -0.360 N 
ATOM      2  H   LIG    1       -1.523  -0.745  -2.153  0.00  0.00    +0.420 HD
ENDROOT
BRANCH   1   3
ATOM      3  C   LIG    1       -2.135   1.070  -1.450  0.00  0.00    +0.100 C 
ATOM      4  C   LIG    1       -1.513   1.896  -0.322  0.00  0.00    +0.090 C 
ATOM      5  C   LIG    1       -0.846   1.855  -1.699  0.00  0.00    +0.090 C 
ENDBRANCH   1   3
BRANCH   1   6
ATOM      6  C   LIG    1       -1.320  -0.754  -0.123  0.00  0.00    +0.250 C 
BRANCH   6   8
ATOM      7  C   LIG    1        0.906  -0.791   1.010  0.00  0.00    +0.070 C 
ATOM      8  C   LIG    1        0.149  -0.344  -0.242  0.00  0.00    -0.030 C 
ATOM      9  C   LIG    1        0.765  -1.006  -1.475  0.00  0.00    +0.050 C 
ENDBRANCH   6   8
ENDBRANCH   1   6
BRANCH   1  10
ATOM     10  C   LIG    1       -3.378  -0.979  -1.335  0.00  0.00    +0.250 C 
BRANCH  10  11
ATOM     11  C   LIG    1       -4.063  -0.731  -2.680  0.00  0.00    +0.040 C 
BRANCH  11  12
ATOM     12  C   LIG    1       -5.497  -1.263  -2.628  0.00  0.00    -0.060 C 
ATOM     13  C   LIG    1       -5.473  -2.765  -2.337  0.00  0.00    +0.030 C 
ATOM     14  C   LIG    1       -6.182  -1.016  -3.974  0.00  0.00    +0.040 C 
ATOM     15  C   LIG    1       -6.269  -0.541  -1.522  0.00  0.00    +0.030 C 
ENDBRANCH  11  12
ENDBRANCH  10  11
ENDBRANCH   1  10
TORSDOF 6
ENDMDL
MODEL      819
REMARK  Name = ZINC000602862404
REMARK                            x       y       z     vdW  Elec       q    Type
REMARK                         _______ _______ _______ _____ _____    ______ ____
ROOT
ATOM      1  N   LIG    1        0.776  -0.431   1.095  0.00  0.00    -0.380 N 
ATOM      2  H   LIG    1        1.637   0.094   1.071  0.00  0.00    +0.420 HD
ENDROOT
BRANCH   1   3
ATOM      3  C   LIG    1        1.068  -1.860   0.920  0.00  0.00    +0.150 C 
ATOM      4  C   LIG    1        1.885  -2.091  -0.376  0.00  0.00    +0.040 C 
ATOM      5  C   LIG    1        2.596  -3.438  -0.095  0.00  0.00    +0.050 C 
ATOM      6  C   LIG    1        2.966  -3.367   1.401  0.00  0.00    +0.030 C 
ATOM      7  C   LIG    1        1.994  -2.363   2.046  0.00  0.00    +0.030 C 
ENDBRANCH   1   3
BRANCH   1   9
ATOM      8  C   LIG    1       -0.299   1.539   0.115  0.00  0.00    +0.080 C 
ATOM      9  C   LIG    1       -0.106   0.025   0.012  0.00  0.00    +0.240 C 
ENDBRANCH   1   9
BRANCH   1  10
ATOM     10  C   LIG    1        0.111  -0.222   2.389  0.00  0.00    +0.240 C 
BRANCH  10  11
ATOM     11  C   LIG    1       -1.179  -1.043   2.437  0.00  0.00    +0.040 C 
BRANCH  11  12
ATOM     12  C   LIG    1       -1.847  -0.861   3.802  0.00  0.00    -0.060 C 
ATOM     13  C   LIG    1       -0.898  -1.338   4.902  0.00  0.00    +0.030 C 
ATOM     14  C   LIG    1       -3.138  -1.682   3.851  0.00  0.00    +0.040 C 
ATOM     15  C   LIG    1       -2.175   0.618   4.017  0.00  0.00    +0.030 C 
ENDBRANCH  11  12
ENDBRANCH  10  11
ENDBRANCH   1  10
TORSDOF 5
ENDMDL
MODEL      820
REMARK  Name = ZINC001169092576
REMARK                            x       y       z     vdW  Elec       q    Type
REMARK                         _______ _______ _______ _____ _____    ______ ____
ROOT
ATOM      1  N   LIG    1       -0.556  -2.447  -1.231  0.00  0.00    -0.380 N 
ATOM      2  C   LIG    1       -0.531  -3.898  -1.012  0.00  0.00    +0.240 C 
ATOM      3  C   LIG    1       -1.956  -4.451  -1.072  0.00  0.00    +0.060 C 
ATOM      4  C   LIG    1       -2.804  -3.783   0.015  0.00  0.00    +0.000 C 
ATOM      5  C   LIG    1       -2.762  -2.265  -0.180  0.00  0.00    -0.080 C 
ATOM      6  C   LIG    1       -3.542  -1.583   0.946  0.00  0.00    +0.070 C 
ATOM      7  C   LIG    1       -3.390  -1.905  -1.528  0.00  0.00    +0.040 C 
ATOM      8  C   LIG    1       -4.249  -4.274  -0.089  0.00  0.00    +0.040 C 
ATOM      9  C   LIG    1       -1.306  -1.794  -0.152  0.00  0.00    +0.260 C 
ATOM     10  H   LIG    1       -1.000  -2.249  -2.115  0.00  0.00    +0.420 HD
ENDROOT
BRANCH   1  11
ATOM     11  C   LIG    1        0.820  -1.932  -1.250  0.00  0.00    +0.160 C 
ATOM     12  C   LIG    1        1.540  -2.355   0.032  0.00  0.00    +0.080 C 
BRANCH  11  13
ATOM     13  C   LIG    1        1.561  -2.501  -2.462  0.00  0.00    +0.050 C 
BRANCH  13  15
ATOM     14  C   LIG    1        1.736  -2.437  -4.953  0.00  0.00    +0.030 C 
ATOM     15  C   LIG    1        0.920  -1.972  -3.746  0.00  0.00    -0.000 C 
ENDBRANCH  13  15
ENDBRANCH  11  13
ENDBRANCH   1  11
TORSDOF 3
ENDMDL
MODEL      821
REMARK  Name = ZINC000602862765
REMARK                            x       y       z     vdW  Elec       q    Type
REMARK                         _______ _______ _______ _____ _____    ______ ____
ROOT
ATOM      1  C   LIG    1        0.718  -0.497  -1.257  0.00  0.00    -0.020 C 
ATOM      2  C   LIG    1        2.189  -0.075  -1.207  0.00  0.00    +0.040 C 
ATOM      3  C   LIG    1        2.914  -0.640  -2.432  0.00  0.00    +0.050 C 
ATOM      4  C   LIG    1        2.748  -2.161  -2.459  0.00  0.00    +0.250 C 
ATOM      5  N   LIG    1        1.322  -2.500  -2.533  0.00  0.00    -0.380 N 
ATOM      6  H   LIG    1        0.915  -2.063  -3.347  0.00  0.00    +0.420 HD
ATOM      7  C   LIG    1        0.633  -2.024  -1.328  0.00  0.00    +0.250 C 
ENDROOT
BRANCH   1   9
ATOM      8  C   LIG    1       -0.019   1.526   0.010  0.00  0.00    +0.030 C 
ATOM      9  C   LIG    1        0.002  -0.004   0.002  0.00  0.00    +0.020 C 
ENDBRANCH   1   9
BRANCH   5  10
ATOM     10  C   LIG    1        1.171  -3.958  -2.636  0.00  0.00    +0.240 C 
BRANCH  10  11
ATOM     11  C   LIG    1        1.772  -4.441  -3.958  0.00  0.00    +0.040 C 
BRANCH  11  12
ATOM     12  C   LIG    1        1.615  -5.959  -4.065  0.00  0.00    -0.060 C 
ATOM     13  C   LIG    1        2.343  -6.630  -2.898  0.00  0.00    +0.030 C 
ATOM     14  C   LIG    1        2.216  -6.442  -5.386  0.00  0.00    +0.040 C 
ATOM     15  C   LIG    1        0.130  -6.322  -4.017  0.00  0.00    +0.030 C 
ENDBRANCH  11  12
ENDBRANCH  10  11
ENDBRANCH   5  10
TORSDOF 4
ENDMDL
MODEL      822
REMARK  Name = ZINC000602861009
REMARK                            x       y       z     vdW  Elec       q    Type
REMARK                         _______ _______ _______ _____ _____    ______ ____
ROOT
ATOM      1  N   LIG    1       -0.047   1.455   2.349  0.00  0.00    -0.380 N 
ATOM      2  C   LIG    1       -0.726   1.862   1.112  0.00  0.00    +0.320 C 
ATOM      3  H   LIG    1        0.900   1.804   2.345  0.00  0.00    +0.420 HD
ENDROOT
BRANCH   1   4
ATOM      4  C   LIG    1       -0.028  -0.011   2.437  0.00  0.00    +0.160 C 
ATOM      5  C   LIG    1        0.721  -0.437   3.702  0.00  0.00    +0.080 C 
BRANCH   4   6
ATOM      6  C   LIG    1        0.679  -0.587   1.208  0.00  0.00    +0.040 C 
BRANCH   6   8
ATOM      7  C   LIG    1       -0.794  -2.604   1.147  0.00  0.00    +0.020 C 
ATOM      8  C   LIG    1        0.650  -2.115   1.272  0.00  0.00    -0.010 C 
ATOM      9  C   LIG    1        1.484  -2.689   0.126  0.00  0.00    +0.040 C 
ENDBRANCH   6   8
ENDBRANCH   4   6
ENDBRANCH   1   4
BRANCH   1  10
ATOM     10  C   LIG    1       -0.766   2.005   3.506  0.00  0.00    +0.240 C 
BRANCH  10  11
ATOM     11  C   LIG    1       -0.679   3.533   3.481  0.00  0.00    +0.040 C 
BRANCH  11  12
ATOM     12  C   LIG    1       -1.428   4.106   4.686  0.00  0.00    -0.060 C 
ATOM     13  C   LIG    1       -2.895   3.678   4.625  0.00  0.00    +0.030 C 
ATOM     14  C   LIG    1       -1.341   5.633   4.661  0.00  0.00    +0.040 C 
ATOM     15  C   LIG    1       -0.796   3.580   5.976  0.00  0.00    +0.030 C 
ENDBRANCH  11  12
ENDBRANCH  10  11
ENDBRANCH   1  10
TORSDOF 6
ENDMDL
MODEL      823
REMARK  Name = ZINC000602868789
REMARK                            x       y       z     vdW  Elec       q    Type
REMARK                         _______ _______ _______ _____ _____    ______ ____
ROOT
ATOM      1  N   LIG    1       -1.704  -2.267   0.085  0.00  0.00    -0.390 N 
ATOM      2  H   LIG    1       -0.999  -2.472  -0.607  0.00  0.00    +0.420 HD
ENDROOT
BRANCH   1   3
ATOM      3  C   LIG    1       -1.529  -0.891   0.569  0.00  0.00    +0.240 C 
BRANCH   3   5
ATOM      4  C   LIG    1       -1.401   1.509  -0.113  0.00  0.00    +0.060 C 
ATOM      5  C   LIG    1       -1.513   0.071  -0.621  0.00  0.00    +0.030 C 
ENDBRANCH   3   5
ENDBRANCH   1   3
BRANCH   1   6
ATOM      6  C   LIG    1       -3.037  -2.407  -0.518  0.00  0.00    +0.250 C 
BRANCH   6   7
ATOM      7  C   LIG    1       -3.170  -3.798  -1.142  0.00  0.00    -0.030 C 
ATOM      8  C   LIG    1       -2.164  -3.942  -2.286  0.00  0.00    +0.030 C 
ATOM      9  C   LIG    1       -4.589  -3.979  -1.685  0.00  0.00    +0.070 C 
ENDBRANCH   6   7
ENDBRANCH   1   6
BRANCH   1  10
ATOM     10  C   LIG    1       -1.575  -3.202   1.210  0.00  0.00    +0.250 C 
BRANCH  10  11
ATOM     11  C   LIG    1       -0.140  -3.168   1.739  0.00  0.00    +0.040 C 
BRANCH  11  12
ATOM     12  C   LIG    1        0.030  -4.233   2.824  0.00  0.00    -0.060 C 
ATOM     13  C   LIG    1       -0.943  -3.952   3.971  0.00  0.00    +0.030 C 
ATOM     14  C   LIG    1        1.465  -4.199   3.353  0.00  0.00    +0.040 C 
ATOM     15  C   LIG    1       -0.263  -5.614   2.233  0.00  0.00    +0.030 C 
ENDBRANCH  11  12
ENDBRANCH  10  11
ENDBRANCH   1  10
TORSDOF 7
ENDMDL
MODEL      824
REMARK  Name = ZINC000678815966
REMARK                            x       y       z     vdW  Elec       q    Type
REMARK                         _______ _______ _______ _____ _____    ______ ____
ROOT
ATOM      1  N   LIG    1        1.290  -4.199   2.337  0.00  0.00    -0.380 N 
ATOM      2  H   LIG    1        1.462  -4.905   1.638  0.00  0.00    +0.420 HD
ENDROOT
BRANCH   1   3
ATOM      3  C   LIG    1       -0.159  -4.041   2.527  0.00  0.00    +0.160 C 
ATOM      4  C   LIG    1       -0.420  -2.986   3.603  0.00  0.00    +0.090 C 
ATOM      5  C   LIG    1       -0.764  -5.377   2.964  0.00  0.00    +0.080 C 
ENDBRANCH   1   3
BRANCH   1   6
ATOM      6  C   LIG    1        1.868  -2.922   1.897  0.00  0.00    +0.250 C 
BRANCH   6   7
ATOM      7  C   LIG    1        1.323  -2.567   0.512  0.00  0.00    -0.030 C 
ATOM      8  C   LIG    1        1.758  -3.632  -0.496  0.00  0.00    +0.040 C 
BRANCH   7   9
ATOM      9  C   LIG    1        1.871  -1.204   0.083  0.00  0.00    +0.040 C 
BRANCH   9  11
ATOM     10  C   LIG    1        1.779   0.571  -1.672  0.00  0.00    +0.020 C 
ATOM     11  C   LIG    1        1.230  -0.791  -1.243  0.00  0.00    +0.000 C 
ENDBRANCH   9  11
ENDBRANCH   7   9
ENDBRANCH   6   7
ENDBRANCH   1   6
BRANCH   1  12
ATOM     12  C   LIG    1        1.908  -4.605   3.606  0.00  0.00    +0.290 C 
BRANCH  12  13
ATOM     13  C   LIG    1        1.733  -6.112   3.800  0.00  0.00    -0.090 C 
ATOM     14  C   LIG    1        2.999  -6.971   3.846  0.00  0.00    +0.040 C 
ATOM     15  C   LIG    1        2.202  -6.714   5.127  0.00  0.00    +0.070 C 
ENDBRANCH  12  13
ENDBRANCH   1  12
TORSDOF 7
ENDMDL
MODEL      825
REMARK  Name = ZINC000678815967
REMARK                            x       y       z     vdW  Elec       q    Type
REMARK                         _______ _______ _______ _____ _____    ______ ____
ROOT
ATOM      1  N   LIG    1        1.756  -4.175   2.543  0.00  0.00    -0.380 N 
ATOM      2  H   LIG    1        2.303  -4.625   1.824  0.00  0.00    +0.420 HD
ENDROOT
BRANCH   1   3
ATOM      3  C   LIG    1        0.418  -4.780   2.593  0.00  0.00    +0.160 C 
ATOM      4  C   LIG    1       -0.213  -4.737   1.200  0.00  0.00    +0.090 C 
ATOM      5  C   LIG    1       -0.458  -3.999   3.574  0.00  0.00    +0.080 C 
ENDBRANCH   1   3
BRANCH   1   6
ATOM      6  C   LIG    1        1.635  -2.743   2.241  0.00  0.00    +0.240 C 
BRANCH   6   7
ATOM      7  C   LIG    1        3.029  -2.145   2.039  0.00  0.00    -0.030 C 
ATOM      8  C   LIG    1        3.676  -2.768   0.800  0.00  0.00    +0.040 C 
BRANCH   7   9
ATOM      9  C   LIG    1        2.912  -0.631   1.846  0.00  0.00    +0.040 C 
BRANCH   9  11
ATOM     10  C   LIG    1        4.194   1.496   1.575  0.00  0.00    +0.020 C 
ATOM     11  C   LIG    1        4.311  -0.017   1.768  0.00  0.00    +0.000 C 
ENDBRANCH   9  11
ENDBRANCH   7   9
ENDBRANCH   6   7
ENDBRANCH   1   6
BRANCH   1  12
ATOM     12  C   LIG    1        2.420  -4.348   3.842  0.00  0.00    +0.280 C 
BRANCH  12  13
ATOM     13  C   LIG    1        2.684  -5.835   4.087  0.00  0.00    -0.090 C 
ATOM     14  C   LIG    1        4.142  -6.286   4.191  0.00  0.00    +0.050 C 
ATOM     15  C   LIG    1        3.265  -6.236   5.444  0.00  0.00    +0.070 C 
ENDBRANCH  12  13
ENDBRANCH   1  12
TORSDOF 7
ENDMDL
MODEL      826
REMARK  Name = ZINC000602877246
REMARK                            x       y       z     vdW  Elec       q    Type
REMARK                         _______ _______ _______ _____ _____    ______ ____
ROOT
ATOM      1  C   LIG    1       -1.433  -0.534   0.013  0.00  0.00    +0.160 C 
ATOM      2  C   LIG    1       -2.151  -0.077   1.300  0.00  0.00    +0.080 C 
ATOM      3  C   LIG    1       -3.008  -1.314   1.680  0.00  0.00    +0.080 C 
ATOM      4  C   LIG    1       -2.080  -2.480   1.255  0.00  0.00    +0.250 C 
ATOM      5  N   LIG    1       -1.424  -2.008   0.013  0.00  0.00    -0.390 N 
ATOM      6  H   LIG    1       -0.472  -2.341  -0.016  0.00  0.00    +0.420 HD
ENDROOT
BRANCH   1   8
ATOM      7  C   LIG    1       -0.019   1.526   0.010  0.00  0.00    +0.070 C 
ATOM      8  C   LIG    1        0.002  -0.004   0.002  0.00  0.00    -0.020 C 
ATOM      9  C   LIG    1        0.742  -0.511   1.242  0.00  0.00    +0.040 C 
ENDBRANCH   1   8
BRANCH   5  10
ATOM     10  C   LIG    1       -2.160  -2.509  -1.155  0.00  0.00    +0.240 C 
BRANCH  10  11
ATOM     11  C   LIG    1       -2.034  -4.032  -1.223  0.00  0.00    +0.040 C 
BRANCH  11  12
ATOM     12  C   LIG    1       -2.800  -4.554  -2.440  0.00  0.00    -0.060 C 
ATOM     13  C   LIG    1       -4.276  -4.170  -2.316  0.00  0.00    +0.030 C 
ATOM     14  C   LIG    1       -2.674  -6.077  -2.508  0.00  0.00    +0.040 C 
ATOM     15  C   LIG    1       -2.218  -3.937  -3.713  0.00  0.00    +0.030 C 
ENDBRANCH  11  12
ENDBRANCH  10  11
ENDBRANCH   5  10
TORSDOF 4
ENDMDL
MODEL      827
REMARK  Name = ZINC000602877245
REMARK                            x       y       z     vdW  Elec       q    Type
REMARK                         _______ _______ _______ _____ _____    ______ ____
ROOT
ATOM      1  C   LIG    1       -1.417  -0.476  -0.002  0.00  0.00    +0.160 C 
ATOM      2  C   LIG    1       -2.290  -0.140  -1.228  0.00  0.00    +0.070 C 
ATOM      3  C   LIG    1       -3.239  -1.364  -1.328  0.00  0.00    +0.080 C 
ATOM      4  C   LIG    1       -2.306  -2.519  -0.886  0.00  0.00    +0.250 C 
ATOM      5  N   LIG    1       -1.464  -1.938   0.186  0.00  0.00    -0.390 N 
ATOM      6  H   LIG    1       -1.864  -2.155   1.087  0.00  0.00    +0.420 HD
ENDROOT
BRANCH   1   8
ATOM      7  C   LIG    1        0.386  -0.268  -1.719  0.00  0.00    +0.050 C 
ATOM      8  C   LIG    1        0.025  -0.030  -0.252  0.00  0.00    -0.020 C 
ATOM      9  C   LIG    1        0.162   1.459   0.072  0.00  0.00    +0.070 C 
ENDBRANCH   1   8
BRANCH   5  10
ATOM     10  C   LIG    1       -0.105  -2.488   0.101  0.00  0.00    +0.240 C 
BRANCH  10  11
ATOM     11  C   LIG    1       -0.143  -3.989   0.397  0.00  0.00    +0.040 C 
BRANCH  11  12
ATOM     12  C   LIG    1        1.273  -4.562   0.308  0.00  0.00    -0.060 C 
ATOM     13  C   LIG    1        1.829  -4.334  -1.099  0.00  0.00    +0.030 C 
ATOM     14  C   LIG    1        1.234  -6.063   0.604  0.00  0.00    +0.040 C 
ATOM     15  C   LIG    1        2.171  -3.864   1.331  0.00  0.00    +0.030 C 
ENDBRANCH  11  12
ENDBRANCH  10  11
ENDBRANCH   5  10
TORSDOF 4
ENDMDL
MODEL      828
REMARK  Name = ZINC000678840256
REMARK                            x       y       z     vdW  Elec       q    Type
REMARK                         _______ _______ _______ _____ _____    ______ ____
ROOT
ATOM      1  N   LIG    1        1.927  -3.957   2.245  0.00  0.00    -0.380 N 
ATOM      2  C   LIG    1        2.879  -4.086   1.134  0.00  0.00    +0.320 C 
ATOM      3  H   LIG    1        1.086  -4.470   2.028  0.00  0.00    +0.420 HD
ENDROOT
BRANCH   1   4
ATOM      4  C   LIG    1        2.529  -4.497   3.471  0.00  0.00    +0.210 C 
ATOM      5  C   LIG    1        3.862  -3.795   3.737  0.00  0.00    +0.090 C 
BRANCH   4   6
ATOM      6  C   LIG    1        2.768  -5.998   3.304  0.00  0.00    -0.180 C 
ATOM      7  C   LIG    1        4.209  -6.465   3.090  0.00  0.00    +0.050 C 
ATOM      8  C   LIG    1        1.661  -6.765   2.576  0.00  0.00    +0.090 C 
ATOM      9  C   LIG    1        3.510  -6.725   4.426  0.00  0.00    +0.080 C 
ENDBRANCH   4   6
ENDBRANCH   1   4
BRANCH   1  10
ATOM     10  C   LIG    1        1.597  -2.539   2.444  0.00  0.00    +0.250 C 
BRANCH  10  11
ATOM     11  C   LIG    1        0.838  -2.015   1.223  0.00  0.00    -0.030 C 
ATOM     12  C   LIG    1       -0.509  -2.733   1.114  0.00  0.00    +0.040 C 
BRANCH  11  13
ATOM     13  C   LIG    1        0.604  -0.511   1.375  0.00  0.00    +0.040 C 
BRANCH  13  15
ATOM     14  C   LIG    1       -0.278   1.540   0.253  0.00  0.00    +0.020 C 
ATOM     15  C   LIG    1       -0.044   0.035   0.101  0.00  0.00    +0.000 C 
ENDBRANCH  13  15
ENDBRANCH  11  13
ENDBRANCH  10  11
ENDBRANCH   1  10
TORSDOF 6
ENDMDL
MODEL      829
REMARK  Name = ZINC001169301054
REMARK                            x       y       z     vdW  Elec       q    Type
REMARK                         _______ _______ _______ _____ _____    ______ ____
ROOT
ATOM      1  N   LIG    1       -0.695  -2.579   1.011  0.00  0.00    -0.380 N 
ATOM      2  C   LIG    1       -0.610  -4.036   0.852  0.00  0.00    +0.250 C 
ATOM      3  C   LIG    1       -0.128  -4.668   2.159  0.00  0.00    +0.050 C 
ATOM      4  C   LIG    1        1.255  -4.111   2.509  0.00  0.00    +0.040 C 
ATOM      5  C   LIG    1        1.171  -2.584   2.600  0.00  0.00    -0.080 C 
ATOM      6  C   LIG    1        2.563  -2.011   2.874  0.00  0.00    +0.070 C 
ATOM      7  C   LIG    1        0.224  -2.191   3.735  0.00  0.00    +0.050 C 
ATOM      8  C   LIG    1        0.641  -2.030   1.276  0.00  0.00    +0.260 C 
ATOM      9  H   LIG    1       -1.306  -2.361   1.784  0.00  0.00    +0.420 HD
ENDROOT
BRANCH   1  10
ATOM     10  C   LIG    1       -1.232  -1.984  -0.220  0.00  0.00    +0.160 C 
ATOM     11  C   LIG    1       -2.586  -2.618  -0.544  0.00  0.00    +0.080 C 
BRANCH  10  12
ATOM     12  C   LIG    1       -1.409  -0.477  -0.022  0.00  0.00    +0.040 C 
BRANCH  12  14
ATOM     13  C   LIG    1       -2.165   1.642  -1.109  0.00  0.00    +0.040 C 
ATOM     14  C   LIG    1       -1.859   0.161  -1.338  0.00  0.00    -0.010 C 
ATOM     15  C   LIG    1       -0.746   0.025  -2.378  0.00  0.00    +0.020 C 
ENDBRANCH  12  14
ENDBRANCH  10  12
ENDBRANCH   1  10
TORSDOF 3
ENDMDL
MODEL      830
REMARK  Name = ZINC000678840254
REMARK                            x       y       z     vdW  Elec       q    Type
REMARK                         _______ _______ _______ _____ _____    ______ ____
ROOT
ATOM      1  N   LIG    1        1.409  -3.964   2.501  0.00  0.00    -0.380 N 
ATOM      2  C   LIG    1        2.372  -4.497   1.528  0.00  0.00    +0.310 C 
ATOM      3  H   LIG    1        0.484  -4.297   2.276  0.00  0.00    +0.420 HD
ENDROOT
BRANCH   1   4
ATOM      4  C   LIG    1        1.778  -4.412   3.850  0.00  0.00    +0.210 C 
ATOM      5  C   LIG    1        0.776  -3.856   4.864  0.00  0.00    +0.090 C 
BRANCH   4   6
ATOM      6  C   LIG    1        1.760  -5.941   3.902  0.00  0.00    -0.180 C 
ATOM      7  C   LIG    1        3.102  -6.659   4.061  0.00  0.00    +0.060 C 
ATOM      8  C   LIG    1        0.695  -6.619   3.037  0.00  0.00    +0.080 C 
ATOM      9  C   LIG    1        2.118  -6.608   5.231  0.00  0.00    +0.080 C 
ENDBRANCH   4   6
ENDBRANCH   1   4
BRANCH   1  10
ATOM     10  C   LIG    1        1.427  -2.495   2.451  0.00  0.00    +0.250 C 
BRANCH  10  11
ATOM     11  C   LIG    1        0.930  -2.025   1.083  0.00  0.00    -0.030 C 
ATOM     12  C   LIG    1        1.080  -0.506   0.980  0.00  0.00    +0.070 C 
BRANCH  11  13
ATOM     13  C   LIG    1       -0.543  -2.405   0.916  0.00  0.00    +0.000 C 
BRANCH  13  15
ATOM     14  C   LIG    1       -2.478  -2.427  -0.664  0.00  0.00    +0.010 C 
ATOM     15  C   LIG    1       -1.005  -2.047  -0.498  0.00  0.00    +0.010 C 
ENDBRANCH  13  15
ENDBRANCH  11  13
ENDBRANCH  10  11
ENDBRANCH   1  10
TORSDOF 6
ENDMDL
MODEL      831
REMARK  Name = ZINC000678840418
REMARK                            x       y       z     vdW  Elec       q    Type
REMARK                         _______ _______ _______ _____ _____    ______ ____
ROOT
ATOM      1  N   LIG    1        2.242  -3.325   2.633  0.00  0.00    -0.380 N 
ATOM      2  C   LIG    1        3.029  -3.862   1.515  0.00  0.00    +0.310 C 
ATOM      3  H   LIG    1        1.387  -3.853   2.726  0.00  0.00    +0.420 HD
ENDROOT
BRANCH   1   4
ATOM      4  C   LIG    1        3.021  -3.431   3.874  0.00  0.00    +0.210 C 
ATOM      5  C   LIG    1        3.792  -4.752   3.882  0.00  0.00    +0.090 C 
BRANCH   4   6
ATOM      6  C   LIG    1        2.074  -3.386   5.075  0.00  0.00    -0.180 C 
ATOM      7  C   LIG    1        2.018  -4.621   5.977  0.00  0.00    +0.050 C 
ATOM      8  C   LIG    1        0.775  -2.606   4.863  0.00  0.00    +0.090 C 
ATOM      9  C   LIG    1        2.703  -3.344   6.470  0.00  0.00    +0.080 C 
ENDBRANCH   4   6
ENDBRANCH   1   4
BRANCH   1  10
ATOM     10  C   LIG    1        1.922  -1.915   2.374  0.00  0.00    +0.250 C 
BRANCH  10  11
ATOM     11  C   LIG    1        0.445  -1.790   1.994  0.00  0.00    -0.030 C 
ATOM     12  C   LIG    1        0.202  -2.489   0.655  0.00  0.00    +0.040 C 
BRANCH  11  13
ATOM     13  C   LIG    1        0.075  -0.310   1.871  0.00  0.00    +0.030 C 
BRANCH  13  15
ATOM     14  C   LIG    1       -1.799   1.299   1.492  0.00  0.00    +0.020 C 
ATOM     15  C   LIG    1       -1.428  -0.180   1.614  0.00  0.00    +0.000 C 
ENDBRANCH  13  15
ENDBRANCH  11  13
ENDBRANCH  10  11
ENDBRANCH   1  10
TORSDOF 6
ENDMDL
MODEL      832
REMARK  Name = ZINC001169301053
REMARK                            x       y       z     vdW  Elec       q    Type
REMARK                         _______ _______ _______ _____ _____    ______ ____
ROOT
ATOM      1  N   LIG    1       -0.969  -2.512  -1.562  0.00  0.00    -0.380 N 
ATOM      2  C   LIG    1        0.453  -2.187  -1.731  0.00  0.00    +0.250 C 
ATOM      3  C   LIG    1        0.881  -2.487  -3.170  0.00  0.00    +0.050 C 
ATOM      4  C   LIG    1        0.656  -3.973  -3.464  0.00  0.00    +0.040 C 
ATOM      5  C   LIG    1       -0.815  -4.317  -3.213  0.00  0.00    -0.080 C 
ATOM      6  C   LIG    1       -1.033  -5.815  -3.430  0.00  0.00    +0.070 C 
ATOM      7  C   LIG    1       -1.697  -3.526  -4.181  0.00  0.00    +0.040 C 
ATOM      8  C   LIG    1       -1.178  -3.950  -1.772  0.00  0.00    +0.250 C 
ATOM      9  H   LIG    1       -1.514  -1.992  -2.234  0.00  0.00    +0.420 HD
ENDROOT
BRANCH   1  10
ATOM     10  C   LIG    1       -1.394  -2.150  -0.203  0.00  0.00    +0.160 C 
ATOM     11  C   LIG    1       -0.671  -3.038   0.811  0.00  0.00    +0.080 C 
BRANCH  10  12
ATOM     12  C   LIG    1       -2.905  -2.352  -0.071  0.00  0.00    +0.060 C 
BRANCH  12  14
ATOM     13  C   LIG    1       -5.134  -1.666  -0.969  0.00  0.00    +0.050 C 
ATOM     14  C   LIG    1       -3.633  -1.371  -0.994  0.00  0.00    -0.040 C 
ATOM     15  C   LIG    1       -3.386   0.060  -0.513  0.00  0.00    +0.030 C 
ENDBRANCH  12  14
ENDBRANCH  10  12
ENDBRANCH   1  10
TORSDOF 3
ENDMDL
MODEL      833
REMARK  Name = ZINC000678840417
REMARK                            x       y       z     vdW  Elec       q    Type
REMARK                         _______ _______ _______ _____ _____    ______ ____
ROOT
ATOM      1  N   LIG    1        1.727  -4.008   2.327  0.00  0.00    -0.380 N 
ATOM      2  C   LIG    1        2.478  -4.375   1.119  0.00  0.00    +0.310 C 
ATOM      3  H   LIG    1        0.807  -4.419   2.289  0.00  0.00    +0.420 HD
ENDROOT
BRANCH   1   4
ATOM      4  C   LIG    1        2.437  -4.505   3.514  0.00  0.00    +0.210 C 
ATOM      5  C   LIG    1        1.655  -4.122   4.772  0.00  0.00    +0.090 C 
BRANCH   4   6
ATOM      6  C   LIG    1        2.561  -6.027   3.434  0.00  0.00    -0.180 C 
ATOM      7  C   LIG    1        3.958  -6.612   3.223  0.00  0.00    +0.050 C 
ATOM      8  C   LIG    1        1.384  -6.752   2.776  0.00  0.00    +0.080 C 
ATOM      9  C   LIG    1        3.274  -6.739   4.585  0.00  0.00    +0.080 C 
ENDBRANCH   4   6
ENDBRANCH   1   4
BRANCH   1  10
ATOM     10  C   LIG    1        1.608  -2.546   2.404  0.00  0.00    +0.250 C 
BRANCH  10  11
ATOM     11  C   LIG    1        0.763  -2.041   1.233  0.00  0.00    -0.030 C 
ATOM     12  C   LIG    1       -0.666  -2.571   1.370  0.00  0.00    +0.040 C 
BRANCH  11  13
ATOM     13  C   LIG    1        0.742  -0.511   1.242  0.00  0.00    +0.030 C 
BRANCH  13  15
ATOM     14  C   LIG    1       -0.019   1.526   0.010  0.00  0.00    +0.020 C 
ATOM     15  C   LIG    1        0.002  -0.004   0.002  0.00  0.00    +0.000 C 
ENDBRANCH  13  15
ENDBRANCH  11  13
ENDBRANCH  10  11
ENDBRANCH   1  10
TORSDOF 6
ENDMDL
MODEL      834
REMARK  Name = ZINC000643355437
REMARK                            x       y       z     vdW  Elec       q    Type
REMARK                         _______ _______ _______ _____ _____    ______ ____
ROOT
ATOM      1  N   LIG    1        0.261  -0.109  -1.714  0.00  0.00    -0.380 N 
ATOM      2  H   LIG    1        0.276   0.359  -2.608  0.00  0.00    +0.420 HD
ENDROOT
BRANCH   1   4
ATOM      3  C   LIG    1       -0.697  -0.129   0.539  0.00  0.00    +0.090 C 
ATOM      4  C   LIG    1       -0.692   0.566  -0.824  0.00  0.00    +0.250 C 
ENDBRANCH   1   4
BRANCH   1   5
ATOM      5  C   LIG    1       -0.149  -1.507  -1.901  0.00  0.00    +0.270 C 
BRANCH   5   6
ATOM      6  C   LIG    1        0.765  -2.173  -2.931  0.00  0.00    -0.120 C 
ATOM      7  C   LIG    1        2.028  -2.802  -2.319  0.00  0.00    +0.030 C 
ATOM      8  C   LIG    1        1.204  -4.088  -2.138  0.00  0.00    +0.010 C 
ATOM      9  C   LIG    1        1.047  -1.280  -4.141  0.00  0.00    +0.060 C 
ATOM     10  C   LIG    1        0.332  -3.600  -3.307  0.00  0.00    +0.060 C 
ENDBRANCH   5   6
ENDBRANCH   1   5
BRANCH   1  11
ATOM     11  C   LIG    1        1.603  -0.068  -1.117  0.00  0.00    +0.250 C 
BRANCH  11  12
ATOM     12  C   LIG    1        2.060   1.387  -0.989  0.00  0.00    -0.080 C 
ATOM     13  C   LIG    1        1.508   2.200  -2.162  0.00  0.00    +0.040 C 
ATOM     14  C   LIG    1        3.588   1.444  -1.004  0.00  0.00    +0.070 C 
ATOM     15  C   LIG    1        1.540   1.971   0.326  0.00  0.00    +0.040 C 
ENDBRANCH  11  12
ENDBRANCH   1  11
TORSDOF 5
ENDMDL
MODEL      835
REMARK  Name = ZINC000603555272
REMARK                            x       y       z     vdW  Elec       q    Type
REMARK                         _______ _______ _______ _____ _____    ______ ____
ROOT
ATOM      1  N   LIG    1        0.504  -0.482  -1.097  0.00  0.00    -0.380 N 
ATOM      2  H   LIG    1       -0.084   0.044  -1.727  0.00  0.00    +0.420 HD
ENDROOT
BRANCH   1   4
ATOM      3  C   LIG    1        0.672   1.558   0.247  0.00  0.00    +0.080 C 
ATOM      4  C   LIG    1        0.370   0.059   0.263  0.00  0.00    +0.240 C 
ENDBRANCH   1   4
BRANCH   1   5
ATOM      5  C   LIG    1        0.093  -1.892  -1.106  0.00  0.00    +0.160 C 
ATOM      6  C   LIG    1        0.887  -2.661  -0.048  0.00  0.00    +0.080 C 
BRANCH   5   7
ATOM      7  C   LIG    1       -1.402  -1.990  -0.793  0.00  0.00    -0.020 C 
ATOM      8  C   LIG    1       -1.829  -3.459  -0.800  0.00  0.00    +0.070 C 
ATOM      9  C   LIG    1       -2.195  -1.223  -1.853  0.00  0.00    +0.040 C 
ENDBRANCH   5   7
ENDBRANCH   1   5
BRANCH   1  10
ATOM     10  C   LIG    1        1.903  -0.377  -1.530  0.00  0.00    +0.230 C 
BRANCH  10  11
ATOM     11  C   LIG    1        2.015  -0.792  -2.998  0.00  0.00    +0.040 C 
BRANCH  11  12
ATOM     12  C   LIG    1        3.477  -0.707  -3.442  0.00  0.00    -0.060 C 
ATOM     13  C   LIG    1        3.978   0.729  -3.278  0.00  0.00    +0.030 C 
ATOM     14  C   LIG    1        3.590  -1.122  -4.910  0.00  0.00    +0.040 C 
ATOM     15  C   LIG    1        4.326  -1.645  -2.581  0.00  0.00    +0.030 C 
ENDBRANCH  11  12
ENDBRANCH  10  11
ENDBRANCH   1  10
TORSDOF 6
ENDMDL
MODEL      836
REMARK  Name = ZINC000603555271
REMARK                            x       y       z     vdW  Elec       q    Type
REMARK                         _______ _______ _______ _____ _____    ______ ____
ROOT
ATOM      1  N   LIG    1        0.763  -0.373  -1.449  0.00  0.00    -0.380 N 
ATOM      2  H   LIG    1        0.363   0.006  -2.295  0.00  0.00    +0.420 HD
ENDROOT
BRANCH   1   4
ATOM      3  C   LIG    1        0.523  -0.574   0.980  0.00  0.00    +0.080 C 
ATOM      4  C   LIG    1       -0.013   0.089  -0.291  0.00  0.00    +0.240 C 
ENDBRANCH   1   4
BRANCH   1   5
ATOM      5  C   LIG    1        0.729  -1.840  -1.507  0.00  0.00    +0.160 C 
ATOM      6  C   LIG    1        1.460  -2.318  -2.764  0.00  0.00    +0.080 C 
BRANCH   5   7
ATOM      7  C   LIG    1       -0.724  -2.316  -1.551  0.00  0.00    -0.010 C 
ATOM      8  C   LIG    1       -0.759  -3.844  -1.623  0.00  0.00    +0.070 C 
ATOM      9  C   LIG    1       -1.415  -1.732  -2.785  0.00  0.00    +0.040 C 
ENDBRANCH   5   7
ENDBRANCH   1   5
BRANCH   1  10
ATOM     10  C   LIG    1        2.154   0.080  -1.319  0.00  0.00    +0.240 C 
BRANCH  10  11
ATOM     11  C   LIG    1        2.201   1.608  -1.386  0.00  0.00    +0.040 C 
BRANCH  11  12
ATOM     12  C   LIG    1        3.658   2.075  -1.377  0.00  0.00    -0.060 C 
ATOM     13  C   LIG    1        4.338   1.599  -0.091  0.00  0.00    +0.030 C 
ATOM     14  C   LIG    1        3.705   3.602  -1.444  0.00  0.00    +0.040 C 
ATOM     15  C   LIG    1        4.389   1.488  -2.587  0.00  0.00    +0.030 C 
ENDBRANCH  11  12
ENDBRANCH  10  11
ENDBRANCH   1  10
TORSDOF 6
ENDMDL
MODEL      837
REMARK  Name = ZINC001169092574
REMARK                            x       y       z     vdW  Elec       q    Type
REMARK                         _______ _______ _______ _____ _____    ______ ____
ROOT
ATOM      1  N   LIG    1       -0.556  -2.447  -1.231  0.00  0.00    -0.380 N 
ATOM      2  C   LIG    1       -0.531  -3.898  -1.012  0.00  0.00    +0.240 C 
ATOM      3  C   LIG    1       -1.956  -4.451  -1.072  0.00  0.00    +0.060 C 
ATOM      4  C   LIG    1       -2.804  -3.783   0.015  0.00  0.00    +0.000 C 
ATOM      5  C   LIG    1       -2.762  -2.265  -0.180  0.00  0.00    -0.070 C 
ATOM      6  C   LIG    1       -3.542  -1.583   0.946  0.00  0.00    +0.070 C 
ATOM      7  C   LIG    1       -3.390  -1.905  -1.528  0.00  0.00    +0.040 C 
ATOM      8  C   LIG    1       -2.242  -4.140   1.393  0.00  0.00    +0.030 C 
ATOM      9  C   LIG    1       -1.306  -1.794  -0.152  0.00  0.00    +0.250 C 
ATOM     10  H   LIG    1       -1.000  -2.249  -2.115  0.00  0.00    +0.420 HD
ENDROOT
BRANCH   1  11
ATOM     11  C   LIG    1        0.820  -1.932  -1.250  0.00  0.00    +0.160 C 
ATOM     12  C   LIG    1        1.540  -2.355   0.032  0.00  0.00    +0.090 C 
BRANCH  11  13
ATOM     13  C   LIG    1        1.561  -2.501  -2.462  0.00  0.00    +0.050 C 
BRANCH  13  15
ATOM     14  C   LIG    1        1.736  -2.437  -4.953  0.00  0.00    +0.030 C 
ATOM     15  C   LIG    1        0.920  -1.972  -3.746  0.00  0.00    -0.000 C 
ENDBRANCH  13  15
ENDBRANCH  11  13
ENDBRANCH   1  11
TORSDOF 3
ENDMDL
MODEL      838
REMARK  Name = ZINC000388577508
REMARK                            x       y       z     vdW  Elec       q    Type
REMARK                         _______ _______ _______ _____ _____    ______ ____
ROOT
ATOM      1  N   LIG    1        1.473  -2.527   2.423  0.00  0.00    -0.390 N 
ATOM      2  C   LIG    1        0.721  -2.155   3.629  0.00  0.00    +0.330 C 
ATOM      3  H   LIG    1        2.393  -2.113   2.459  0.00  0.00    +0.420 HD
ENDROOT
BRANCH   1   4
ATOM      4  C   LIG    1        1.598  -3.990   2.355  0.00  0.00    +0.270 C 
ATOM      5  C   LIG    1        2.338  -4.496   3.595  0.00  0.00    +0.100 C 
BRANCH   4   6
ATOM      6  C   LIG    1        2.370  -4.371   1.119  0.00  0.00    -0.270 A 
ATOM      7  C   LIG    1        2.086  -5.403   0.323  0.00  0.00    +0.080 A 
ATOM      8  C   LIG    1        2.937  -5.558  -0.758  0.00  0.00    +0.020 A 
ATOM      9  C   LIG    1        3.912  -4.651  -0.840  0.00  0.00    +0.020 A 
ATOM     10  S   LIG    1        3.778  -3.518   0.499  0.00  0.00    +0.100 S 
ENDBRANCH   4   6
ENDBRANCH   1   4
BRANCH   1  11
ATOM     11  C   LIG    1        0.763  -2.041   1.233  0.00  0.00    +0.240 C 
BRANCH  11  12
ATOM     12  C   LIG    1        0.742  -0.511   1.242  0.00  0.00    +0.030 C 
BRANCH  12  14
ATOM     13  C   LIG    1       -0.019   1.526   0.010  0.00  0.00    +0.030 C 
ATOM     14  C   LIG    1        0.002  -0.004   0.002  0.00  0.00    +0.020 C 
ENDBRANCH  12  14
ENDBRANCH  11  12
ENDBRANCH   1  11
TORSDOF 5
ENDMDL
MODEL      839
REMARK  Name = ZINC000388577506
REMARK                            x       y       z     vdW  Elec       q    Type
REMARK                         _______ _______ _______ _____ _____    ______ ____
ROOT
ATOM      1  N   LIG    1        1.473  -2.527   2.423  0.00  0.00    -0.390 N 
ATOM      2  C   LIG    1        0.721  -2.155   3.629  0.00  0.00    +0.330 C 
ATOM      3  H   LIG    1        2.393  -2.113   2.459  0.00  0.00    +0.420 HD
ENDROOT
BRANCH   1   4
ATOM      4  C   LIG    1        1.598  -3.990   2.355  0.00  0.00    +0.270 C 
ATOM      5  C   LIG    1        2.382  -4.377   1.100  0.00  0.00    +0.100 C 
BRANCH   4   6
ATOM      6  C   LIG    1        2.327  -4.489   3.576  0.00  0.00    -0.270 A 
ATOM      7  C   LIG    1        2.024  -5.598   4.253  0.00  0.00    +0.080 A 
ATOM      8  C   LIG    1        2.836  -5.855   5.344  0.00  0.00    +0.020 A 
ATOM      9  C   LIG    1        3.798  -4.956   5.553  0.00  0.00    +0.020 A 
ATOM     10  S   LIG    1        3.712  -3.702   4.322  0.00  0.00    +0.100 S 
ENDBRANCH   4   6
ENDBRANCH   1   4
BRANCH   1  11
ATOM     11  C   LIG    1        0.763  -2.041   1.233  0.00  0.00    +0.240 C 
BRANCH  11  12
ATOM     12  C   LIG    1        0.742  -0.511   1.242  0.00  0.00    +0.030 C 
BRANCH  12  14
ATOM     13  C   LIG    1       -0.019   1.526   0.010  0.00  0.00    +0.030 C 
ATOM     14  C   LIG    1        0.002  -0.004   0.002  0.00  0.00    +0.020 C 
ENDBRANCH  12  14
ENDBRANCH  11  12
ENDBRANCH   1  11
TORSDOF 5
ENDMDL
MODEL      840
REMARK  Name = ZINC000603821909
REMARK                            x       y       z     vdW  Elec       q    Type
REMARK                         _______ _______ _______ _____ _____    ______ ____
ROOT
ATOM      1  N   LIG    1       -1.393  -1.932   0.136  0.00  0.00    -0.380 N 
ATOM      2  C   LIG    1       -0.839  -2.181   1.474  0.00  0.00    +0.310 C 
ATOM      3  H   LIG    1       -0.902  -2.497  -0.541  0.00  0.00    +0.420 HD
ENDROOT
BRANCH   1   4
ATOM      4  C   LIG    1       -1.232  -0.512  -0.203  0.00  0.00    +0.050 C 
ATOM      5  C   LIG    1       -1.808  -0.252  -1.597  0.00  0.00    +0.090 C 
ATOM      6  C   LIG    1       -1.975   0.345   0.824  0.00  0.00    +0.090 C 
BRANCH   4   8
ATOM      7  C   LIG    1        0.421   1.330  -0.543  0.00  0.00    +0.060 C 
ATOM      8  C   LIG    1        0.254  -0.149  -0.190  0.00  0.00    +0.040 C 
ENDBRANCH   4   8
ENDBRANCH   1   4
BRANCH   1   9
ATOM      9  C   LIG    1       -2.820  -2.280   0.123  0.00  0.00    +0.240 C 
BRANCH   9  10
ATOM     10  C   LIG    1       -2.979  -3.786   0.342  0.00  0.00    -0.020 C 
ATOM     11  C   LIG    1       -4.465  -4.129   0.467  0.00  0.00    +0.030 C 
ATOM     12  C   LIG    1       -4.624  -5.635   0.686  0.00  0.00    +0.020 C 
ATOM     13  C   LIG    1       -4.025  -6.389  -0.503  0.00  0.00    +0.010 C 
ATOM     14  C   LIG    1       -2.539  -6.046  -0.628  0.00  0.00    +0.020 C 
ATOM     15  C   LIG    1       -2.380  -4.540  -0.847  0.00  0.00    +0.000 C 
ENDBRANCH   9  10
ENDBRANCH   1   9
TORSDOF 4
ENDMDL
MODEL      841
REMARK  Name = ZINC000148624199
REMARK                            x       y       z     vdW  Elec       q    Type
REMARK                         _______ _______ _______ _____ _____    ______ ____
ROOT
ATOM      1  N   LIG    1       -1.490  -0.458  -0.253  0.00  0.00    -0.380 N 
ATOM      2  H   LIG    1       -1.723   0.132   0.531  0.00  0.00    +0.420 HD
ENDROOT
BRANCH   1   4
ATOM      3  C   LIG    1        0.144  -0.913  -2.020  0.00  0.00    +0.080 C 
ATOM      4  C   LIG    1       -0.174  -0.072  -0.781  0.00  0.00    +0.240 C 
ENDBRANCH   1   4
BRANCH   1   5
ATOM      5  C   LIG    1       -1.450  -1.860   0.184  0.00  0.00    +0.250 C 
BRANCH   5   6
ATOM      6  C   LIG    1       -0.920  -1.932   1.618  0.00  0.00    -0.080 C 
ATOM      7  C   LIG    1        0.516  -1.407   1.658  0.00  0.00    +0.050 C 
ATOM      8  C   LIG    1       -0.947  -3.384   2.099  0.00  0.00    +0.070 C 
ATOM      9  C   LIG    1       -1.802  -1.077   2.531  0.00  0.00    +0.050 C 
ENDBRANCH   5   6
ENDBRANCH   1   5
BRANCH   1  10
ATOM     10  C   LIG    1       -2.505  -0.301  -1.303  0.00  0.00    +0.250 C 
BRANCH  10  11
ATOM     11  C   LIG    1       -3.894  -0.541  -0.709  0.00  0.00    -0.020 C 
ATOM     12  C   LIG    1       -4.290   0.625   0.230  0.00  0.00    +0.010 C 
ATOM     13  C   LIG    1       -5.837   0.550   0.235  0.00  0.00    +0.030 C 
ATOM     14  C   LIG    1       -6.202   0.179  -1.217  0.00  0.00    +0.010 C 
ATOM     15  C   LIG    1       -4.967  -0.514  -1.818  0.00  0.00    +0.040 C 
ENDBRANCH  10  11
ENDBRANCH   1  10
TORSDOF 5
ENDMDL
MODEL      842
REMARK  Name = ZINC000604055129
REMARK                            x       y       z     vdW  Elec       q    Type
REMARK                         _______ _______ _______ _____ _____    ______ ____
ROOT
ATOM      1  N   LIG    1        1.829  -3.078  -1.949  0.00  0.00    -0.380 N 
ATOM      2  C   LIG    1        3.214  -2.674  -2.012  0.00  0.00    +0.240 C 
ATOM      3  C   LIG    1        3.559  -2.072  -3.385  0.00  0.00    +0.060 C 
ATOM      4  C   LIG    1        2.916  -2.847  -4.552  0.00  0.00    +0.020 C 
ATOM      5  C   LIG    1        2.991  -4.343  -4.386  0.00  0.00    -0.010 C 
ATOM      6  C   LIG    1        1.718  -4.839  -3.658  0.00  0.00    +0.050 C 
ATOM      7  C   LIG    1        1.770  -4.522  -2.234  0.00  0.00    +0.260 C 
ATOM      8  H   LIG    1        1.293  -2.571  -2.638  0.00  0.00    +0.420 HD
ENDROOT
BRANCH   5   9
ATOM      9  C   LIG    1        3.084  -5.005  -5.763  0.00  0.00    -0.010 C 
ATOM     10  C   LIG    1        3.104  -6.526  -5.596  0.00  0.00    +0.020 C 
ATOM     11  C   LIG    1        4.368  -4.551  -6.460  0.00  0.00    +0.020 C 
ENDBRANCH   5   9
BRANCH   1  12
ATOM     12  C   LIG    1        1.292  -2.813  -0.607  0.00  0.00    +0.250 C 
BRANCH  12  13
ATOM     13  C   LIG    1        1.262  -1.304  -0.359  0.00  0.00    +0.030 C 
BRANCH  13  15
ATOM     14  C   LIG    1        0.672   0.482   1.286  0.00  0.00    +0.030 C 
ATOM     15  C   LIG    1        0.703  -1.028   1.038  0.00  0.00    +0.020 C 
ENDBRANCH  13  15
ENDBRANCH  12  13
ENDBRANCH   1  12
TORSDOF 4
ENDMDL
MODEL      843
REMARK  Name = ZINC000604055128
REMARK                            x       y       z     vdW  Elec       q    Type
REMARK                         _______ _______ _______ _____ _____    ______ ____
ROOT
ATOM      1  N   LIG    1        1.372  -2.492  -2.543  0.00  0.00    -0.380 N 
ATOM      2  C   LIG    1        2.780  -2.231  -2.368  0.00  0.00    +0.240 C 
ATOM      3  C   LIG    1        3.397  -2.012  -3.759  0.00  0.00    +0.050 C 
ATOM      4  C   LIG    1        3.746  -3.256  -4.433  0.00  0.00    +0.030 C 
ATOM      5  C   LIG    1        2.491  -4.135  -4.664  0.00  0.00    -0.020 C 
ATOM      6  C   LIG    1        2.096  -4.770  -3.358  0.00  0.00    +0.050 C 
ATOM      7  C   LIG    1        1.078  -3.942  -2.554  0.00  0.00    +0.250 C 
ATOM      8  H   LIG    1        1.070  -2.089  -3.417  0.00  0.00    +0.420 HD
ENDROOT
BRANCH   5   9
ATOM      9  C   LIG    1        2.810  -5.224  -5.691  0.00  0.00    -0.010 C 
ATOM     10  C   LIG    1        3.262  -4.573  -7.000  0.00  0.00    +0.020 C 
ATOM     11  C   LIG    1        1.558  -6.066  -5.945  0.00  0.00    +0.020 C 
ENDBRANCH   5   9
BRANCH   1  12
ATOM     12  C   LIG    1        0.628  -1.862  -1.444  0.00  0.00    +0.250 C 
BRANCH  12  13
ATOM     13  C   LIG    1       -0.873  -1.957  -1.724  0.00  0.00    +0.030 C 
BRANCH  13  15
ATOM     14  C   LIG    1       -3.151  -1.472  -0.820  0.00  0.00    +0.030 C 
ATOM     15  C   LIG    1       -1.650  -1.378  -0.540  0.00  0.00    +0.020 C 
ENDBRANCH  13  15
ENDBRANCH  12  13
ENDBRANCH   1  12
TORSDOF 4
ENDMDL
MODEL      844
REMARK  Name = ZINC000164213570
REMARK                            x       y       z     vdW  Elec       q    Type
REMARK                         _______ _______ _______ _____ _____    ______ ____
ROOT
ATOM      1  N   LIG    1        2.163  -4.524  -3.741  0.00  0.00    -0.390 N 
ATOM      2  C   LIG    1        3.591  -4.144  -3.683  0.00  0.00    +0.250 C 
ATOM      3  C   LIG    1        4.311  -5.393  -3.116  0.00  0.00    +0.080 C 
ATOM      4  C   LIG    1        3.514  -6.544  -3.784  0.00  0.00    +0.070 C 
ATOM      5  C   LIG    1        2.075  -5.994  -3.818  0.00  0.00    +0.160 C 
ATOM      6  H   LIG    1        1.736  -4.115  -4.558  0.00  0.00    +0.420 HD
ENDROOT
BRANCH   5   7
ATOM      7  C   LIG    1        1.391  -6.406  -5.123  0.00  0.00    -0.020 C 
ATOM      8  C   LIG    1       -0.024  -5.825  -5.163  0.00  0.00    +0.030 C 
ATOM      9  C   LIG    1        1.318  -7.932  -5.201  0.00  0.00    +0.070 C 
ENDBRANCH   5   7
BRANCH   1  10
ATOM     10  C   LIG    1        1.476  -4.051  -2.532  0.00  0.00    +0.250 C 
BRANCH  10  11
ATOM     11  C   LIG    1        1.455  -2.521  -2.524  0.00  0.00    +0.030 C 
BRANCH  11  12
ATOM     12  C   LIG    1        0.739  -2.027  -1.265  0.00  0.00    +0.020 C 
BRANCH  12  13
ATOM     13  C   LIG    1        0.718  -0.497  -1.257  0.00  0.00    +0.020 C 
BRANCH  13  15
ATOM     14  C   LIG    1       -0.019   1.526   0.010  0.00  0.00    +0.020 C 
ATOM     15  C   LIG    1        0.002  -0.004   0.002  0.00  0.00    -0.010 C 
ENDBRANCH  13  15
ENDBRANCH  12  13
ENDBRANCH  11  12
ENDBRANCH  10  11
ENDBRANCH   1  10
TORSDOF 6
ENDMDL
MODEL      845
REMARK  Name = ZINC001169092577
REMARK                            x       y       z     vdW  Elec       q    Type
REMARK                         _______ _______ _______ _____ _____    ______ ____
ROOT
ATOM      1  N   LIG    1        1.702  -2.605  -0.160  0.00  0.00    -0.380 N 
ATOM      2  C   LIG    1        1.117  -2.327   1.157  0.00  0.00    +0.250 C 
ATOM      3  C   LIG    1        2.096  -2.749   2.254  0.00  0.00    +0.060 C 
ATOM      4  C   LIG    1        2.382  -4.248   2.126  0.00  0.00    +0.000 C 
ATOM      5  C   LIG    1        2.923  -4.537   0.723  0.00  0.00    -0.070 C 
ATOM      6  C   LIG    1        3.140  -6.043   0.558  0.00  0.00    +0.070 C 
ATOM      7  C   LIG    1        4.253  -3.805   0.527  0.00  0.00    +0.050 C 
ATOM      8  C   LIG    1        1.091  -5.037   2.350  0.00  0.00    +0.030 C 
ATOM      9  C   LIG    1        1.912  -4.049  -0.317  0.00  0.00    +0.250 C 
ATOM     10  H   LIG    1        2.588  -2.127  -0.241  0.00  0.00    +0.420 HD
ENDROOT
BRANCH   1  11
ATOM     11  C   LIG    1        0.792  -2.127  -1.210  0.00  0.00    +0.160 C 
ATOM     12  C   LIG    1       -0.498  -2.949  -1.179  0.00  0.00    +0.090 C 
BRANCH  11  13
ATOM     13  C   LIG    1        1.464  -2.281  -2.576  0.00  0.00    +0.050 C 
BRANCH  13  15
ATOM     14  C   LIG    1        3.380  -1.547  -4.000  0.00  0.00    +0.040 C 
ATOM     15  C   LIG    1        2.673  -1.348  -2.658  0.00  0.00    -0.010 C 
ENDBRANCH  13  15
ENDBRANCH  11  13
ENDBRANCH   1  11
TORSDOF 3
ENDMDL
MODEL      846
REMARK  Name = ZINC000604759877
REMARK                            x       y       z     vdW  Elec       q    Type
REMARK                         _______ _______ _______ _____ _____    ______ ____
ROOT
ATOM      1  N   LIG    1        0.808  -2.004  -1.169  0.00  0.00    -0.380 N 
ATOM      2  C   LIG    1       -0.532  -2.441  -1.477  0.00  0.00    +0.240 C 
ATOM      3  C   LIG    1       -0.741  -3.817  -0.823  0.00  0.00    +0.050 C 
ATOM      4  C   LIG    1       -0.232  -4.918  -1.631  0.00  0.00    +0.030 C 
ATOM      5  C   LIG    1        1.296  -4.786  -1.852  0.00  0.00    -0.020 C 
ATOM      6  C   LIG    1        1.548  -3.711  -2.875  0.00  0.00    +0.050 C 
ATOM      7  C   LIG    1        1.754  -2.315  -2.261  0.00  0.00    +0.250 C 
ATOM      8  H   LIG    1        1.118  -2.463  -0.325  0.00  0.00    +0.420 HD
ENDROOT
BRANCH   5   9
ATOM      9  C   LIG    1        1.858  -6.118  -2.353  0.00  0.00    -0.060 C 
ATOM     10  C   LIG    1        1.566  -7.214  -1.327  0.00  0.00    +0.030 C 
ATOM     11  C   LIG    1        3.371  -5.992  -2.547  0.00  0.00    +0.040 C 
ATOM     12  C   LIG    1        1.201  -6.479  -3.687  0.00  0.00    +0.030 C 
ENDBRANCH   5   9
BRANCH   1  13
ATOM     13  C   LIG    1        0.797  -0.552  -0.945  0.00  0.00    +0.250 C 
BRANCH  13  15
ATOM     14  C   LIG    1        2.165   1.411  -0.227  0.00  0.00    +0.060 C 
ATOM     15  C   LIG    1        2.164  -0.106  -0.422  0.00  0.00    +0.030 C 
ENDBRANCH  13  15
ENDBRANCH   1  13
TORSDOF 3
ENDMDL
MODEL      847
REMARK  Name = ZINC000679581525
REMARK                            x       y       z     vdW  Elec       q    Type
REMARK                         _______ _______ _______ _____ _____    ______ ____
ROOT
ATOM      1  N   LIG    1       -2.828  -4.062   0.007  0.00  0.00    -0.380 N 
ATOM      2  C   LIG    1       -2.224  -4.550   1.254  0.00  0.00    +0.320 C 
ATOM      3  H   LIG    1       -2.285  -4.387  -0.779  0.00  0.00    +0.420 HD
ENDROOT
BRANCH   1   4
ATOM      4  C   LIG    1       -4.202  -4.570  -0.103  0.00  0.00    +0.170 C 
ATOM      5  C   LIG    1       -4.831  -4.061  -1.402  0.00  0.00    +0.040 C 
ATOM      6  C   LIG    1       -6.262  -4.590  -1.517  0.00  0.00    +0.040 C 
ATOM      7  C   LIG    1       -6.241  -6.120  -1.525  0.00  0.00    -0.010 C 
ATOM      8  C   LIG    1       -5.612  -6.628  -0.226  0.00  0.00    +0.040 C 
ATOM      9  C   LIG    1       -5.418  -6.612  -2.717  0.00  0.00    +0.010 C 
ATOM     10  C   LIG    1       -4.181  -6.099  -0.112  0.00  0.00    +0.040 C 
ENDBRANCH   1   4
BRANCH   1  11
ATOM     11  C   LIG    1       -2.848  -2.593   0.015  0.00  0.00    +0.240 C 
BRANCH  11  12
ATOM     12  C   LIG    1       -1.413  -2.063   0.004  0.00  0.00    +0.030 C 
BRANCH  12  13
ATOM     13  C   LIG    1       -1.433  -0.534   0.013  0.00  0.00    +0.020 C 
BRANCH  13  15
ATOM     14  C   LIG    1       -0.019   1.526   0.010  0.00  0.00    +0.020 C 
ATOM     15  C   LIG    1        0.002  -0.004   0.002  0.00  0.00    +0.010 C 
ENDBRANCH  13  15
ENDBRANCH  12  13
ENDBRANCH  11  12
ENDBRANCH   1  11
TORSDOF 5
ENDMDL
MODEL      848
REMARK  Name = ZINC000604759878
REMARK                            x       y       z     vdW  Elec       q    Type
REMARK                         _______ _______ _______ _____ _____    ______ ____
ROOT
ATOM      1  N   LIG    1        0.738  -1.966  -1.265  0.00  0.00    -0.380 N 
ATOM      2  C   LIG    1       -0.651  -2.466  -1.348  0.00  0.00    +0.250 C 
ATOM      3  C   LIG    1       -0.751  -3.937  -1.791  0.00  0.00    +0.060 C 
ATOM      4  C   LIG    1        0.267  -4.832  -1.135  0.00  0.00    +0.030 C 
ATOM      5  C   LIG    1        1.529  -4.895  -2.032  0.00  0.00    +0.000 C 
ATOM      6  C   LIG    1        2.311  -3.670  -1.922  0.00  0.00    +0.050 C 
ATOM      7  C   LIG    1        1.539  -2.419  -2.376  0.00  0.00    +0.240 C 
ATOM      8  H   LIG    1        1.154  -2.293  -0.406  0.00  0.00    +0.420 HD
ENDROOT
BRANCH   5   9
ATOM      9  C   LIG    1        2.393  -6.082  -1.601  0.00  0.00    -0.060 C 
ATOM     10  C   LIG    1        2.810  -5.904  -0.139  0.00  0.00    +0.020 C 
ATOM     11  C   LIG    1        3.641  -6.151  -2.482  0.00  0.00    +0.030 C 
ATOM     12  C   LIG    1        1.591  -7.377  -1.749  0.00  0.00    +0.030 C 
ENDBRANCH   5   9
BRANCH   1  13
ATOM     13  C   LIG    1        0.718  -0.497  -1.257  0.00  0.00    +0.250 C 
BRANCH  13  15
ATOM     14  C   LIG    1       -0.019   1.526   0.010  0.00  0.00    +0.060 C 
ATOM     15  C   LIG    1        0.002  -0.004   0.002  0.00  0.00    +0.020 C 
ENDBRANCH  13  15
ENDBRANCH   1  13
TORSDOF 3
ENDMDL
MODEL      849
REMARK  Name = ZINC000604999056
REMARK                            x       y       z     vdW  Elec       q    Type
REMARK                         _______ _______ _______ _____ _____    ______ ____
ROOT
ATOM      1  C   LIG    1        0.718  -0.497  -1.257  0.00  0.00    -0.010 C 
ATOM      2  C   LIG    1       -0.095  -0.072  -2.505  0.00  0.00    +0.030 C 
ATOM      3  C   LIG    1        0.780  -0.201  -3.723  0.00  0.00    +0.060 C 
ATOM      4  C   LIG    1        0.674  -1.572  -4.413  0.00  0.00    +0.250 C 
ATOM      5  N   LIG    1        0.654  -2.710  -3.469  0.00  0.00    -0.380 N 
ATOM      6  C   LIG    1        1.605  -2.537  -2.398  0.00  0.00    +0.240 C 
ATOM      7  H   LIG    1       -0.272  -2.794  -3.075  0.00  0.00    +0.420 HD
ATOM      8  C   LIG    1        0.855  -1.947  -1.192  0.00  0.00    +0.050 C 
ENDROOT
BRANCH   1  10
ATOM      9  C   LIG    1       -0.019   1.526   0.010  0.00  0.00    +0.020 C 
ATOM     10  C   LIG    1        0.002  -0.004   0.002  0.00  0.00    +0.020 C 
ENDBRANCH   1  10
BRANCH   5  11
ATOM     11  C   LIG    1        0.977  -3.943  -4.199  0.00  0.00    +0.240 C 
BRANCH  11  12
ATOM     12  C   LIG    1       -0.127  -4.236  -5.218  0.00  0.00    +0.030 C 
BRANCH  12  13
ATOM     13  C   LIG    1        0.210  -5.520  -5.978  0.00  0.00    -0.010 C 
ATOM     14  C   LIG    1        1.478  -5.306  -6.806  0.00  0.00    +0.020 C 
ATOM     15  C   LIG    1       -0.951  -5.881  -6.907  0.00  0.00    +0.040 C 
ENDBRANCH  12  13
ENDBRANCH  11  12
ENDBRANCH   5  11
TORSDOF 4
ENDMDL
MODEL      850
REMARK  Name = ZINC000605000674
REMARK                            x       y       z     vdW  Elec       q    Type
REMARK                         _______ _______ _______ _____ _____    ______ ____
ROOT
ATOM      1  N   LIG    1       -3.014  -2.598   0.005  0.00  0.00    -0.380 N 
ATOM      2  C   LIG    1       -3.786  -2.028  -1.106  0.00  0.00    +0.250 C 
ATOM      3  C   LIG    1       -2.986  -2.155  -2.405  0.00  0.00    +0.050 C 
ATOM      4  C   LIG    1       -2.705  -3.634  -2.683  0.00  0.00    +0.030 C 
ATOM      5  C   LIG    1       -1.965  -4.236  -1.485  0.00  0.00    +0.060 C 
ATOM      6  C   LIG    1       -2.802  -4.032  -0.222  0.00  0.00    +0.170 C 
ATOM      7  H   LIG    1       -3.521  -2.466   0.867  0.00  0.00    +0.420 HD
ENDROOT
BRANCH   6   8
ATOM      8  C   LIG    1       -2.067  -4.632   0.979  0.00  0.00    -0.020 C 
ATOM      9  C   LIG    1       -1.939  -6.145   0.795  0.00  0.00    +0.070 C 
ATOM     10  C   LIG    1       -2.854  -4.338   2.257  0.00  0.00    +0.040 C 
ENDBRANCH   6   8
BRANCH   1  11
ATOM     11  C   LIG    1       -1.714  -1.920   0.094  0.00  0.00    +0.240 C 
BRANCH  11  12
ATOM     12  C   LIG    1       -1.928  -0.451   0.461  0.00  0.00    +0.040 C 
BRANCH  12  14
ATOM     13  C   LIG    1       -0.793   1.750   0.798  0.00  0.00    +0.040 C 
ATOM     14  C   LIG    1       -0.574   0.255   0.554  0.00  0.00    -0.010 C 
ATOM     15  C   LIG    1        0.232  -0.338   1.712  0.00  0.00    +0.020 C 
ENDBRANCH  12  14
ENDBRANCH  11  12
ENDBRANCH   1  11
TORSDOF 4
ENDMDL
MODEL      851
REMARK  Name = ZINC000605000673
REMARK                            x       y       z     vdW  Elec       q    Type
REMARK                         _______ _______ _______ _____ _____    ______ ____
ROOT
ATOM      1  N   LIG    1       -2.764  -2.544  -0.091  0.00  0.00    -0.380 N 
ATOM      2  C   LIG    1       -3.269  -1.892  -1.305  0.00  0.00    +0.250 C 
ATOM      3  C   LIG    1       -4.623  -2.494  -1.687  0.00  0.00    +0.050 C 
ATOM      4  C   LIG    1       -4.454  -3.994  -1.945  0.00  0.00    +0.030 C 
ATOM      5  C   LIG    1       -3.857  -4.652  -0.697  0.00  0.00    +0.060 C 
ATOM      6  C   LIG    1       -2.531  -3.970  -0.354  0.00  0.00    +0.170 C 
ATOM      7  H   LIG    1       -3.443  -2.446   0.649  0.00  0.00    +0.420 HD
ENDROOT
BRANCH   6   8
ATOM      8  C   LIG    1       -1.930  -4.623   0.893  0.00  0.00    -0.020 C 
ATOM      9  C   LIG    1       -1.699  -6.112   0.627  0.00  0.00    +0.070 C 
ATOM     10  C   LIG    1       -2.893  -4.458   2.070  0.00  0.00    +0.040 C 
ENDBRANCH   6   8
BRANCH   1  11
ATOM     11  C   LIG    1       -1.503  -1.910   0.316  0.00  0.00    +0.240 C 
BRANCH  11  12
ATOM     12  C   LIG    1       -1.768  -0.458   0.718  0.00  0.00    +0.040 C 
BRANCH  12  14
ATOM     13  C   LIG    1       -0.698   1.686   1.424  0.00  0.00    +0.040 C 
ATOM     14  C   LIG    1       -0.455   0.202   1.141  0.00  0.00    -0.010 C 
ATOM     15  C   LIG    1        0.073  -0.478   2.406  0.00  0.00    +0.020 C 
ENDBRANCH  12  14
ENDBRANCH  11  12
ENDBRANCH   1  11
TORSDOF 4
ENDMDL
MODEL      852
REMARK  Name = ZINC000605149735
REMARK                            x       y       z     vdW  Elec       q    Type
REMARK                         _______ _______ _______ _____ _____    ______ ____
ROOT
ATOM      1  N   LIG    1        1.513  -4.015   2.413  0.00  0.00    -0.360 N 
ATOM      2  H   LIG    1        1.929  -4.535   1.655  0.00  0.00    +0.420 HD
ENDROOT
BRANCH   1   3
ATOM      3  C   LIG    1        0.123  -4.452   2.601  0.00  0.00    +0.090 C 
ATOM      4  C   LIG    1       -0.511  -5.288   1.488  0.00  0.00    +0.100 C 
ATOM      5  C   LIG    1       -0.124  -5.947   2.814  0.00  0.00    +0.090 C 
ENDBRANCH   1   3
BRANCH   1   6
ATOM      6  C   LIG    1        1.537  -2.582   2.094  0.00  0.00    +0.250 C 
BRANCH   6   7
ATOM      7  C   LIG    1        0.852  -2.348   0.746  0.00  0.00    +0.020 C 
BRANCH   7   8
ATOM      8  C   LIG    1        0.877  -0.854   0.414  0.00  0.00    +0.020 C 
BRANCH   8  10
ATOM      9  C   LIG    1        0.217   0.873  -1.267  0.00  0.00    +0.020 C 
ATOM     10  C   LIG    1        0.192  -0.620  -0.935  0.00  0.00    +0.010 C 
ENDBRANCH   8  10
ENDBRANCH   7   8
ENDBRANCH   6   7
ENDBRANCH   1   6
BRANCH   1  11
ATOM     11  C   LIG    1        2.274  -4.255   3.646  0.00  0.00    +0.250 C 
BRANCH  11  12
ATOM     12  C   LIG    1        3.751  -3.940   3.404  0.00  0.00    +0.040 C 
BRANCH  12  13
ATOM     13  C   LIG    1        4.564  -4.325   4.641  0.00  0.00    -0.010 C 
ATOM     14  C   LIG    1        6.020  -3.896   4.449  0.00  0.00    +0.040 C 
ATOM     15  C   LIG    1        4.502  -5.841   4.841  0.00  0.00    +0.020 C 
ENDBRANCH  12  13
ENDBRANCH  11  12
ENDBRANCH   1  11
TORSDOF 8
ENDMDL
MODEL      853
REMARK  Name = ZINC000604999057
REMARK                            x       y       z     vdW  Elec       q    Type
REMARK                         _______ _______ _______ _____ _____    ______ ____
ROOT
ATOM      1  C   LIG    1        0.718  -0.497  -1.257  0.00  0.00    -0.030 C 
ATOM      2  C   LIG    1        2.150  -0.033  -1.212  0.00  0.00    +0.040 C 
ATOM      3  C   LIG    1        2.647   0.228  -2.655  0.00  0.00    +0.060 C 
ATOM      4  C   LIG    1        2.912  -1.026  -3.354  0.00  0.00    +0.250 C 
ATOM      5  N   LIG    1        1.722  -1.879  -3.513  0.00  0.00    -0.380 N 
ATOM      6  C   LIG    1        1.584  -2.668  -2.311  0.00  0.00    +0.240 C 
ATOM      7  H   LIG    1        0.903  -1.304  -3.641  0.00  0.00    +0.420 HD
ATOM      8  C   LIG    1        0.580  -2.030  -1.336  0.00  0.00    +0.060 C 
ENDROOT
BRANCH   1  10
ATOM      9  C   LIG    1       -0.019   1.526   0.010  0.00  0.00    +0.020 C 
ATOM     10  C   LIG    1        0.002  -0.004   0.002  0.00  0.00    +0.020 C 
ENDBRANCH   1  10
BRANCH   5  11
ATOM     11  C   LIG    1        1.895  -2.764  -4.673  0.00  0.00    +0.250 C 
BRANCH  11  12
ATOM     12  C   LIG    1        1.960  -1.923  -5.950  0.00  0.00    +0.030 C 
BRANCH  12  13
ATOM     13  C   LIG    1        2.140  -2.845  -7.159  0.00  0.00    -0.010 C 
ATOM     14  C   LIG    1        3.497  -3.546  -7.067  0.00  0.00    +0.020 C 
ATOM     15  C   LIG    1        2.080  -2.017  -8.444  0.00  0.00    +0.040 C 
ENDBRANCH  12  13
ENDBRANCH  11  12
ENDBRANCH   5  11
TORSDOF 4
ENDMDL
MODEL      854
REMARK  Name = ZINC000605150131
REMARK                            x       y       z     vdW  Elec       q    Type
REMARK                         _______ _______ _______ _____ _____    ______ ____
ROOT
ATOM      1  N   LIG    1       -2.875  -5.174   0.901  0.00  0.00    -0.350 N 
ATOM      2  H   LIG    1       -2.694  -5.534   1.826  0.00  0.00    +0.420 HD
ENDROOT
BRANCH   1   3
ATOM      3  C   LIG    1       -2.214  -6.028  -0.095  0.00  0.00    +0.100 C 
ATOM      4  C   LIG    1       -1.430  -7.237   0.420  0.00  0.00    +0.090 C 
ATOM      5  C   LIG    1       -2.768  -7.440  -0.293  0.00  0.00    +0.090 C 
ENDBRANCH   1   3
BRANCH   1   6
ATOM      6  C   LIG    1       -2.350  -3.806   0.798  0.00  0.00    +0.240 C 
BRANCH   6   7
ATOM      7  C   LIG    1       -0.879  -3.791   1.218  0.00  0.00    +0.030 C 
BRANCH   7   8
ATOM      8  C   LIG    1       -0.332  -2.366   1.111  0.00  0.00    +0.020 C 
BRANCH   8  10
ATOM      9  C   LIG    1        1.686  -0.926   1.424  0.00  0.00    +0.020 C 
ATOM     10  C   LIG    1        1.139  -2.351   1.531  0.00  0.00    +0.020 C 
ENDBRANCH   8  10
ENDBRANCH   7   8
ENDBRANCH   6   7
ENDBRANCH   1   6
BRANCH   1  11
ATOM     11  C   LIG    1       -4.323  -5.162   0.654  0.00  0.00    +0.160 C 
BRANCH  11  12
ATOM     12  C   LIG    1       -4.609  -4.446  -0.667  0.00  0.00    +0.050 C 
ATOM     13  C   LIG    1       -4.133  -5.316  -1.832  0.00  0.00    +0.030 C 
ENDBRANCH  11  12
BRANCH  11  14
ATOM     14  C   LIG    1       -5.029  -4.429   1.796  0.00  0.00    +0.050 C 
ATOM     15  C   LIG    1       -4.836  -5.207   3.099  0.00  0.00    +0.040 C 
ENDBRANCH  11  14
ENDBRANCH   1  11
TORSDOF 8
ENDMDL
MODEL      855
REMARK  Name = ZINC000605149860
REMARK                            x       y       z     vdW  Elec       q    Type
REMARK                         _______ _______ _______ _____ _____    ______ ____
ROOT
ATOM      1  N   LIG    1       -2.828  -4.062   0.007  0.00  0.00    -0.380 N 
ATOM      2  C   LIG    1       -2.224  -4.550   1.254  0.00  0.00    +0.320 C 
ATOM      3  H   LIG    1       -2.285  -4.387  -0.779  0.00  0.00    +0.420 HD
ENDROOT
BRANCH   1   4
ATOM      4  C   LIG    1       -4.202  -4.570  -0.103  0.00  0.00    +0.170 C 
ATOM      5  C   LIG    1       -4.181  -6.099  -0.112  0.00  0.00    +0.040 C 
ATOM      6  C   LIG    1       -5.612  -6.628  -0.226  0.00  0.00    +0.040 C 
ATOM      7  C   LIG    1       -6.241  -6.120  -1.525  0.00  0.00    +0.020 C 
ATOM      8  C   LIG    1       -6.262  -4.590  -1.517  0.00  0.00    +0.000 C 
ATOM      9  C   LIG    1       -6.891  -4.081  -2.815  0.00  0.00    +0.040 C 
ATOM     10  C   LIG    1       -4.831  -4.061  -1.402  0.00  0.00    +0.040 C 
ENDBRANCH   1   4
BRANCH   1  11
ATOM     11  C   LIG    1       -2.848  -2.593   0.015  0.00  0.00    +0.240 C 
BRANCH  11  12
ATOM     12  C   LIG    1       -1.413  -2.063   0.004  0.00  0.00    +0.030 C 
BRANCH  12  13
ATOM     13  C   LIG    1       -1.433  -0.534   0.013  0.00  0.00    +0.020 C 
BRANCH  13  15
ATOM     14  C   LIG    1       -0.019   1.526   0.010  0.00  0.00    +0.020 C 
ATOM     15  C   LIG    1        0.002  -0.004   0.002  0.00  0.00    +0.010 C 
ENDBRANCH  13  15
ENDBRANCH  12  13
ENDBRANCH  11  12
ENDBRANCH   1  11
TORSDOF 5
ENDMDL
MODEL      856
REMARK  Name = ZINC000605149861
REMARK                            x       y       z     vdW  Elec       q    Type
REMARK                         _______ _______ _______ _____ _____    ______ ____
ROOT
ATOM      1  N   LIG    1       -2.828  -4.062   0.007  0.00  0.00    -0.380 N 
ATOM      2  C   LIG    1       -2.224  -4.550   1.254  0.00  0.00    +0.320 C 
ATOM      3  H   LIG    1       -2.285  -4.387  -0.779  0.00  0.00    +0.420 HD
ENDROOT
BRANCH   1   4
ATOM      4  C   LIG    1       -4.202  -4.570  -0.103  0.00  0.00    +0.160 C 
ATOM      5  C   LIG    1       -4.831  -4.061  -1.402  0.00  0.00    +0.040 C 
ATOM      6  C   LIG    1       -6.262  -4.590  -1.517  0.00  0.00    +0.040 C 
ATOM      7  C   LIG    1       -6.241  -6.120  -1.525  0.00  0.00    +0.020 C 
ATOM      8  C   LIG    1       -5.612  -6.628  -0.226  0.00  0.00    +0.000 C 
ATOM      9  C   LIG    1       -6.435  -6.136   0.966  0.00  0.00    +0.030 C 
ATOM     10  C   LIG    1       -4.181  -6.099  -0.112  0.00  0.00    +0.040 C 
ENDBRANCH   1   4
BRANCH   1  11
ATOM     11  C   LIG    1       -2.848  -2.593   0.015  0.00  0.00    +0.240 C 
BRANCH  11  12
ATOM     12  C   LIG    1       -1.413  -2.063   0.004  0.00  0.00    +0.030 C 
BRANCH  12  13
ATOM     13  C   LIG    1       -1.433  -0.534   0.013  0.00  0.00    +0.020 C 
BRANCH  13  15
ATOM     14  C   LIG    1       -0.019   1.526   0.010  0.00  0.00    +0.020 C 
ATOM     15  C   LIG    1        0.002  -0.004   0.002  0.00  0.00    +0.010 C 
ENDBRANCH  13  15
ENDBRANCH  12  13
ENDBRANCH  11  12
ENDBRANCH   1  11
TORSDOF 5
ENDMDL
MODEL      857
REMARK  Name = ZINC000605150226
REMARK                            x       y       z     vdW  Elec       q    Type
REMARK                         _______ _______ _______ _____ _____    ______ ____
ROOT
ATOM      1  N   LIG    1        2.097  -3.812  -1.984  0.00  0.00    -0.390 N 
ATOM      2  C   LIG    1        0.647  -4.091  -1.893  0.00  0.00    +0.250 C 
ATOM      3  C   LIG    1        0.177  -4.218  -3.364  0.00  0.00    +0.080 C 
ATOM      4  C   LIG    1        1.387  -4.933  -4.020  0.00  0.00    +0.070 C 
ATOM      5  C   LIG    1        2.591  -4.328  -3.273  0.00  0.00    +0.160 C 
ATOM      6  H   LIG    1        2.579  -4.272  -1.226  0.00  0.00    +0.420 HD
ENDROOT
BRANCH   1   7
ATOM      7  C   LIG    1        2.327  -2.363  -1.910  0.00  0.00    +0.250 C 
BRANCH   7   8
ATOM      8  C   LIG    1        1.934  -1.855  -0.522  0.00  0.00    +0.030 C 
BRANCH   8   9
ATOM      9  C   LIG    1        2.174  -0.345  -0.445  0.00  0.00    +0.020 C 
BRANCH   9  11
ATOM     10  C   LIG    1        2.021   1.673   1.020  0.00  0.00    +0.020 C 
ATOM     11  C   LIG    1        1.781   0.164   0.944  0.00  0.00    +0.010 C 
ENDBRANCH   9  11
ENDBRANCH   8   9
ENDBRANCH   7   8
ENDBRANCH   1   7
BRANCH   5  12
ATOM     12  C   LIG    1        3.649  -5.407  -3.030  0.00  0.00    +0.040 C 
BRANCH  12  13
ATOM     13  C   LIG    1        4.217  -5.876  -4.372  0.00  0.00    -0.010 C 
ATOM     14  C   LIG    1        5.165  -7.054  -4.140  0.00  0.00    +0.040 C 
ATOM     15  C   LIG    1        4.982  -4.727  -5.031  0.00  0.00    +0.020 C 
ENDBRANCH  12  13
ENDBRANCH   5  12
TORSDOF 6
ENDMDL
MODEL      858
REMARK  Name = ZINC000605149858
REMARK                            x       y       z     vdW  Elec       q    Type
REMARK                         _______ _______ _______ _____ _____    ______ ____
ROOT
ATOM      1  N   LIG    1       -2.828  -4.062   0.007  0.00  0.00    -0.380 N 
ATOM      2  C   LIG    1       -2.224  -4.550   1.254  0.00  0.00    +0.320 C 
ATOM      3  H   LIG    1       -2.285  -4.387  -0.779  0.00  0.00    +0.420 HD
ENDROOT
BRANCH   1   4
ATOM      4  C   LIG    1       -4.202  -4.570  -0.103  0.00  0.00    +0.160 C 
ATOM      5  C   LIG    1       -4.181  -6.099  -0.112  0.00  0.00    +0.040 C 
ATOM      6  C   LIG    1       -5.612  -6.628  -0.226  0.00  0.00    +0.040 C 
ATOM      7  C   LIG    1       -6.241  -6.120  -1.525  0.00  0.00    +0.020 C 
ATOM      8  C   LIG    1       -6.262  -4.590  -1.517  0.00  0.00    +0.000 C 
ATOM      9  C   LIG    1       -7.085  -4.098  -0.325  0.00  0.00    +0.030 C 
ATOM     10  C   LIG    1       -4.831  -4.061  -1.402  0.00  0.00    +0.040 C 
ENDBRANCH   1   4
BRANCH   1  11
ATOM     11  C   LIG    1       -2.848  -2.593   0.015  0.00  0.00    +0.240 C 
BRANCH  11  12
ATOM     12  C   LIG    1       -1.413  -2.063   0.004  0.00  0.00    +0.030 C 
BRANCH  12  13
ATOM     13  C   LIG    1       -1.433  -0.534   0.013  0.00  0.00    +0.020 C 
BRANCH  13  15
ATOM     14  C   LIG    1       -0.019   1.526   0.010  0.00  0.00    +0.020 C 
ATOM     15  C   LIG    1        0.002  -0.004   0.002  0.00  0.00    +0.010 C 
ENDBRANCH  13  15
ENDBRANCH  12  13
ENDBRANCH  11  12
ENDBRANCH   1  11
TORSDOF 5
ENDMDL
MODEL      859
REMARK  Name = ZINC000605149859
REMARK                            x       y       z     vdW  Elec       q    Type
REMARK                         _______ _______ _______ _____ _____    ______ ____
ROOT
ATOM      1  N   LIG    1       -2.828  -4.062   0.007  0.00  0.00    -0.380 N 
ATOM      2  C   LIG    1       -2.224  -4.550   1.254  0.00  0.00    +0.320 C 
ATOM      3  H   LIG    1       -2.285  -4.387  -0.779  0.00  0.00    +0.420 HD
ENDROOT
BRANCH   1   4
ATOM      4  C   LIG    1       -4.202  -4.570  -0.103  0.00  0.00    +0.170 C 
ATOM      5  C   LIG    1       -4.831  -4.061  -1.402  0.00  0.00    +0.040 C 
ATOM      6  C   LIG    1       -6.262  -4.590  -1.517  0.00  0.00    +0.040 C 
ATOM      7  C   LIG    1       -6.241  -6.120  -1.525  0.00  0.00    +0.020 C 
ATOM      8  C   LIG    1       -5.612  -6.628  -0.226  0.00  0.00    +0.000 C 
ATOM      9  C   LIG    1       -5.592  -8.158  -0.235  0.00  0.00    +0.040 C 
ATOM     10  C   LIG    1       -4.181  -6.099  -0.112  0.00  0.00    +0.040 C 
ENDBRANCH   1   4
BRANCH   1  11
ATOM     11  C   LIG    1       -2.848  -2.593   0.015  0.00  0.00    +0.240 C 
BRANCH  11  12
ATOM     12  C   LIG    1       -1.413  -2.063   0.004  0.00  0.00    +0.030 C 
BRANCH  12  13
ATOM     13  C   LIG    1       -1.433  -0.534   0.013  0.00  0.00    +0.020 C 
BRANCH  13  15
ATOM     14  C   LIG    1       -0.019   1.526   0.010  0.00  0.00    +0.020 C 
ATOM     15  C   LIG    1        0.002  -0.004   0.002  0.00  0.00    +0.010 C 
ENDBRANCH  13  15
ENDBRANCH  12  13
ENDBRANCH  11  12
ENDBRANCH   1  11
TORSDOF 5
ENDMDL
MODEL      860
REMARK  Name = ZINC000605150227
REMARK                            x       y       z     vdW  Elec       q    Type
REMARK                         _______ _______ _______ _____ _____    ______ ____
ROOT
ATOM      1  N   LIG    1        1.399  -3.555  -2.580  0.00  0.00    -0.390 N 
ATOM      2  C   LIG    1       -0.056  -3.817  -2.557  0.00  0.00    +0.250 C 
ATOM      3  C   LIG    1       -0.240  -5.100  -3.406  0.00  0.00    +0.070 C 
ATOM      4  C   LIG    1        0.814  -4.889  -4.525  0.00  0.00    +0.080 C 
ATOM      5  C   LIG    1        1.968  -4.184  -3.786  0.00  0.00    +0.160 C 
ATOM      6  H   LIG    1        1.828  -3.950  -1.756  0.00  0.00    +0.420 HD
ENDROOT
BRANCH   1   7
ATOM      7  C   LIG    1        1.639  -2.106  -2.618  0.00  0.00    +0.250 C 
BRANCH   7   8
ATOM      8  C   LIG    1        1.129  -1.470  -1.324  0.00  0.00    +0.010 C 
BRANCH   8   9
ATOM      9  C   LIG    1        1.379   0.038  -1.363  0.00  0.00    +0.020 C 
BRANCH   9  11
ATOM     10  C   LIG    1        1.120   2.183  -0.109  0.00  0.00    +0.020 C 
ATOM     11  C   LIG    1        0.869   0.675  -0.069  0.00  0.00    +0.000 C 
ENDBRANCH   9  11
ENDBRANCH   8   9
ENDBRANCH   7   8
ENDBRANCH   1   7
BRANCH   5  12
ATOM     12  C   LIG    1        2.591  -3.119  -4.689  0.00  0.00    +0.040 C 
BRANCH  12  13
ATOM     13  C   LIG    1        3.289  -3.796  -5.870  0.00  0.00    -0.010 C 
ATOM     14  C   LIG    1        4.077  -2.752  -6.664  0.00  0.00    +0.040 C 
ATOM     15  C   LIG    1        2.242  -4.443  -6.779  0.00  0.00    +0.030 C 
ENDBRANCH  12  13
ENDBRANCH   5  12
TORSDOF 6
ENDMDL
MODEL      861
REMARK  Name = ZINC000605149887
REMARK                            x       y       z     vdW  Elec       q    Type
REMARK                         _______ _______ _______ _____ _____    ______ ____
ROOT
ATOM      1  N   LIG    1        1.530  -4.011   2.344  0.00  0.00    -0.350 N 
ATOM      2  H   LIG    1        0.567  -4.205   2.116  0.00  0.00    +0.420 HD
ENDROOT
BRANCH   1   3
ATOM      3  C   LIG    1        1.919  -4.786   3.530  0.00  0.00    +0.160 C 
ATOM      4  C   LIG    1        0.948  -4.505   4.703  0.00  0.00    +0.040 C 
ATOM      5  C   LIG    1        1.100  -5.770   5.584  0.00  0.00    +0.050 C 
ATOM      6  C   LIG    1        1.240  -6.923   4.568  0.00  0.00    +0.030 C 
ATOM      7  C   LIG    1        1.761  -6.297   3.262  0.00  0.00    +0.040 C 
ENDBRANCH   1   3
BRANCH   1   8
ATOM      8  C   LIG    1        2.386  -4.387   1.211  0.00  0.00    +0.090 C 
ATOM      9  C   LIG    1        1.764  -5.250   0.112  0.00  0.00    +0.100 C 
ATOM     10  C   LIG    1        2.064  -3.773  -0.152  0.00  0.00    +0.100 C 
ENDBRANCH   1   8
BRANCH   1  11
ATOM     11  C   LIG    1        1.689  -2.577   2.623  0.00  0.00    +0.250 C 
BRANCH  11  12
ATOM     12  C   LIG    1        3.152  -2.282   2.959  0.00  0.00    +0.030 C 
BRANCH  12  13
ATOM     13  C   LIG    1        3.343  -0.772   3.122  0.00  0.00    +0.020 C 
BRANCH  13  15
ATOM     14  C   LIG    1        4.997   1.032   3.622  0.00  0.00    +0.020 C 
ATOM     15  C   LIG    1        4.806  -0.477   3.458  0.00  0.00    +0.000 C 
ENDBRANCH  13  15
ENDBRANCH  12  13
ENDBRANCH  11  12
ENDBRANCH   1  11
TORSDOF 6
ENDMDL
MODEL      862
REMARK  Name = ZINC000605149756
REMARK                            x       y       z     vdW  Elec       q    Type
REMARK                         _______ _______ _______ _____ _____    ______ ____
ROOT
ATOM      1  N   LIG    1       -2.828  -4.062   0.007  0.00  0.00    -0.380 N 
ATOM      2  C   LIG    1       -2.202  -4.612   1.217  0.00  0.00    +0.320 C 
ATOM      3  H   LIG    1       -2.352  -4.417  -0.808  0.00  0.00    +0.420 HD
ENDROOT
BRANCH   1   4
ATOM      4  C   LIG    1       -4.241  -4.462  -0.038  0.00  0.00    +0.170 C 
ATOM      5  C   LIG    1       -4.845  -4.034  -1.349  0.00  0.00    +0.020 C 
ATOM      6  C   LIG    1       -6.326  -3.634  -1.212  0.00  0.00    +0.030 C 
ATOM      7  C   LIG    1       -7.120  -4.583  -0.293  0.00  0.00    +0.000 C 
ATOM      8  C   LIG    1       -6.769  -6.029  -0.518  0.00  0.00    +0.020 C 
ATOM      9  C   LIG    1       -5.674  -6.430   0.491  0.00  0.00    +0.020 C 
ATOM     10  C   LIG    1       -4.349  -5.996   0.074  0.00  0.00    +0.050 C 
ENDBRANCH   1   4
BRANCH   1  11
ATOM     11  C   LIG    1       -2.735  -2.596   0.030  0.00  0.00    +0.240 C 
BRANCH  11  12
ATOM     12  C   LIG    1       -1.267  -2.177  -0.075  0.00  0.00    +0.030 C 
BRANCH  12  13
ATOM     13  C   LIG    1       -1.169  -0.650  -0.051  0.00  0.00    +0.020 C 
BRANCH  13  15
ATOM     14  C   LIG    1        0.396   1.296  -0.133  0.00  0.00    +0.020 C 
ATOM     15  C   LIG    1        0.298  -0.231  -0.157  0.00  0.00    +0.010 C 
ENDBRANCH  13  15
ENDBRANCH  12  13
ENDBRANCH  11  12
ENDBRANCH   1  11
TORSDOF 5
ENDMDL
MODEL      863
REMARK  Name = ZINC000605150361
REMARK                            x       y       z     vdW  Elec       q    Type
REMARK                         _______ _______ _______ _____ _____    ______ ____
ROOT
ATOM      1  N   LIG    1        1.077  -3.882   2.037  0.00  0.00    -0.380 N 
ATOM      2  H   LIG    1        0.222  -4.139   1.566  0.00  0.00    +0.420 HD
ENDROOT
BRANCH   1   3
ATOM      3  C   LIG    1        1.001  -4.287   3.447  0.00  0.00    +0.150 C 
ATOM      4  C   LIG    1       -0.179  -3.573   4.152  0.00  0.00    +0.040 C 
ATOM      5  C   LIG    1       -0.485  -4.515   5.343  0.00  0.00    +0.050 C 
ATOM      6  C   LIG    1       -0.287  -5.932   4.766  0.00  0.00    +0.030 C 
ATOM      7  C   LIG    1        0.658  -5.787   3.560  0.00  0.00    +0.050 C 
ENDBRANCH   1   3
BRANCH   1   8
ATOM      8  C   LIG    1        2.212  -4.559   1.394  0.00  0.00    +0.160 C 
ATOM      9  C   LIG    1        1.926  -6.059   1.303  0.00  0.00    +0.090 C 
ATOM     10  C   LIG    1        3.478  -4.330   2.222  0.00  0.00    +0.080 C 
ENDBRANCH   1   8
BRANCH   1  11
ATOM     11  C   LIG    1        1.264  -2.428   1.954  0.00  0.00    +0.240 C 
BRANCH  11  12
ATOM     12  C   LIG    1        1.283  -1.998   0.486  0.00  0.00    +0.020 C 
BRANCH  12  13
ATOM     13  C   LIG    1        1.338  -0.472   0.401  0.00  0.00    +0.020 C 
BRANCH  13  15
ATOM     14  C   LIG    1        1.413   1.484  -1.152  0.00  0.00    +0.020 C 
ATOM     15  C   LIG    1        1.358  -0.043  -1.067  0.00  0.00    +0.010 C 
ENDBRANCH  13  15
ENDBRANCH  12  13
ENDBRANCH  11  12
ENDBRANCH   1  11
TORSDOF 6
ENDMDL
MODEL      864
REMARK  Name = ZINC000605150695
REMARK                            x       y       z     vdW  Elec       q    Type
REMARK                         _______ _______ _______ _____ _____    ______ ____
ROOT
ATOM      1  N   LIG    1        1.147  -4.916  -3.482  0.00  0.00    -0.380 N 
ATOM      2  C   LIG    1        0.091  -5.636  -4.225  0.00  0.00    +0.250 C 
ATOM      3  C   LIG    1        0.848  -6.439  -5.312  0.00  0.00    +0.080 C 
ATOM      4  C   LIG    1        1.976  -5.448  -5.703  0.00  0.00    +0.070 C 
ATOM      5  C   LIG    1        2.318  -4.766  -4.365  0.00  0.00    +0.170 C 
ATOM      6  H   LIG    1        1.405  -5.444  -2.662  0.00  0.00    +0.420 HD
ENDROOT
BRANCH   5   7
ATOM      7  C   LIG    1        2.612  -3.282  -4.598  0.00  0.00    -0.070 C 
ATOM      8  C   LIG    1        3.423  -3.119  -5.885  0.00  0.00    +0.070 C 
ATOM      9  C   LIG    1        3.413  -2.730  -3.417  0.00  0.00    +0.050 C 
ATOM     10  C   LIG    1        1.295  -2.515  -4.724  0.00  0.00    +0.050 C 
ENDBRANCH   5   7
BRANCH   1  11
ATOM     11  C   LIG    1        0.654  -3.591  -3.084  0.00  0.00    +0.240 C 
BRANCH  11  12
ATOM     12  C   LIG    1       -0.314  -3.738  -1.909  0.00  0.00    +0.010 C 
BRANCH  12  13
ATOM     13  C   LIG    1       -0.827  -2.358  -1.494  0.00  0.00    +0.020 C 
BRANCH  13  15
ATOM     14  C   LIG    1       -2.308  -1.125   0.096  0.00  0.00    +0.020 C 
ATOM     15  C   LIG    1       -1.796  -2.506  -0.319  0.00  0.00    -0.010 C 
ENDBRANCH  13  15
ENDBRANCH  12  13
ENDBRANCH  11  12
ENDBRANCH   1  11
TORSDOF 5
ENDMDL
MODEL      865
REMARK  Name = ZINC000605150694
REMARK                            x       y       z     vdW  Elec       q    Type
REMARK                         _______ _______ _______ _____ _____    ______ ____
ROOT
ATOM      1  N   LIG    1        1.475  -3.990  -2.532  0.00  0.00    -0.390 N 
ATOM      2  C   LIG    1        0.097  -4.505  -2.675  0.00  0.00    +0.250 C 
ATOM      3  C   LIG    1       -0.071  -4.772  -4.191  0.00  0.00    +0.080 C 
ATOM      4  C   LIG    1        1.337  -5.299  -4.574  0.00  0.00    +0.080 C 
ATOM      5  C   LIG    1        2.273  -4.469  -3.676  0.00  0.00    +0.170 C 
ATOM      6  H   LIG    1        1.877  -4.329  -1.671  0.00  0.00    +0.420 HD
ENDROOT
BRANCH   5   7
ATOM      7  C   LIG    1        3.425  -5.342  -3.176  0.00  0.00    -0.080 C 
ATOM      8  C   LIG    1        2.862  -6.536  -2.402  0.00  0.00    +0.050 C 
ATOM      9  C   LIG    1        4.328  -4.518  -2.256  0.00  0.00    +0.050 C 
ATOM     10  C   LIG    1        4.238  -5.846  -4.370  0.00  0.00    +0.070 C 
ENDBRANCH   5   7
BRANCH   1  11
ATOM     11  C   LIG    1        1.455  -2.521  -2.524  0.00  0.00    +0.250 C 
BRANCH  11  12
ATOM     12  C   LIG    1        0.739  -2.027  -1.265  0.00  0.00    +0.030 C 
BRANCH  12  13
ATOM     13  C   LIG    1        0.718  -0.497  -1.257  0.00  0.00    +0.020 C 
BRANCH  13  15
ATOM     14  C   LIG    1       -0.019   1.526   0.010  0.00  0.00    +0.020 C 
ATOM     15  C   LIG    1        0.002  -0.004   0.002  0.00  0.00    +0.010 C 
ENDBRANCH  13  15
ENDBRANCH  12  13
ENDBRANCH  11  12
ENDBRANCH   1  11
TORSDOF 5
ENDMDL
MODEL      866
REMARK  Name = ZINC001169395328
REMARK                            x       y       z     vdW  Elec       q    Type
REMARK                         _______ _______ _______ _____ _____    ______ ____
ROOT
ATOM      1  N   LIG    1        1.529  -2.614   2.329  0.00  0.00    -0.370 N 
ATOM      2  C   LIG    1        1.002  -2.316   3.641  0.00  0.00    +0.230 C 
ATOM      3  C   LIG    1        2.133  -2.042   4.648  0.00  0.00    +0.060 C 
ATOM      4  C   LIG    1        3.323  -3.008   4.482  0.00  0.00    +0.010 C 
ATOM      5  C   LIG    1        2.903  -4.436   4.249  0.00  0.00    +0.040 C 
ATOM      6  C   LIG    1        2.783  -4.689   2.726  0.00  0.00    -0.030 C 
ATOM      7  C   LIG    1        2.743  -6.196   2.469  0.00  0.00    +0.070 C 
ATOM      8  C   LIG    1        1.572  -4.080   2.185  0.00  0.00    +0.250 C 
ATOM      9  H   LIG    1        2.460  -2.234   2.240  0.00  0.00    +0.420 HD
ENDROOT
BRANCH   1  10
ATOM     10  C   LIG    1        0.655  -2.037   1.299  0.00  0.00    +0.170 C 
ATOM     11  C   LIG    1        1.170  -2.434  -0.087  0.00  0.00    +0.080 C 
BRANCH  10  12
ATOM     12  C   LIG    1        0.655  -0.513   1.425  0.00  0.00    -0.020 C 
ATOM     13  C   LIG    1        2.056   0.024   1.127  0.00  0.00    +0.050 C 
BRANCH  12  15
ATOM     14  C   LIG    1       -0.434   1.594   0.639  0.00  0.00    +0.030 C 
ATOM     15  C   LIG    1       -0.342   0.082   0.428  0.00  0.00    +0.030 C 
ENDBRANCH  12  15
ENDBRANCH  10  12
ENDBRANCH   1  10
TORSDOF 3
ENDMDL
MODEL      867
REMARK  Name = ZINC000605151523
REMARK                            x       y       z     vdW  Elec       q    Type
REMARK                         _______ _______ _______ _____ _____    ______ ____
ROOT
ATOM      1  N   LIG    1        1.403  -4.236   2.470  0.00  0.00    -0.380 N 
ATOM      2  C   LIG    1        2.080  -4.739   1.268  0.00  0.00    +0.250 C 
ATOM      3  C   LIG    1        3.409  -4.005   1.082  0.00  0.00    +0.050 C 
ATOM      4  C   LIG    1        4.295  -4.246   2.308  0.00  0.00    +0.030 C 
ATOM      5  C   LIG    1        3.549  -3.786   3.564  0.00  0.00    +0.060 C 
ATOM      6  C   LIG    1        2.215  -4.528   3.657  0.00  0.00    +0.170 C 
ATOM      7  H   LIG    1        0.503  -4.685   2.560  0.00  0.00    +0.420 HD
ENDROOT
BRANCH   6   8
ATOM      8  C   LIG    1        1.464  -4.072   4.909  0.00  0.00    -0.020 C 
ATOM      9  C   LIG    1        2.260  -4.470   6.154  0.00  0.00    +0.070 C 
ATOM     10  C   LIG    1        0.087  -4.737   4.949  0.00  0.00    +0.040 C 
ENDBRANCH   6   8
BRANCH   1  11
ATOM     11  C   LIG    1        1.214  -2.784   2.352  0.00  0.00    +0.240 C 
BRANCH  11  12
ATOM     12  C   LIG    1        0.260  -2.486   1.194  0.00  0.00    +0.020 C 
BRANCH  12  13
ATOM     13  C   LIG    1        0.064  -0.974   1.071  0.00  0.00    +0.020 C 
BRANCH  13  15
ATOM     14  C   LIG    1       -1.087   0.837  -0.210  0.00  0.00    +0.020 C 
ATOM     15  C   LIG    1       -0.891  -0.676  -0.087  0.00  0.00    +0.010 C 
ENDBRANCH  13  15
ENDBRANCH  12  13
ENDBRANCH  11  12
ENDBRANCH   1  11
TORSDOF 5
ENDMDL
MODEL      868
REMARK  Name = ZINC001169395326
REMARK                            x       y       z     vdW  Elec       q    Type
REMARK                         _______ _______ _______ _____ _____    ______ ____
ROOT
ATOM      1  N   LIG    1        1.377  -2.600   2.461  0.00  0.00    -0.370 N 
ATOM      2  C   LIG    1        1.259  -4.040   2.453  0.00  0.00    +0.240 C 
ATOM      3  C   LIG    1        1.166  -4.600   3.883  0.00  0.00    +0.060 C 
ATOM      4  C   LIG    1        2.129  -3.899   4.861  0.00  0.00    +0.010 C 
ATOM      5  C   LIG    1        3.495  -3.652   4.276  0.00  0.00    +0.040 C 
ATOM      6  C   LIG    1        3.520  -2.256   3.610  0.00  0.00    -0.030 C 
ATOM      7  C   LIG    1        4.973  -1.841   3.366  0.00  0.00    +0.070 C 
ATOM      8  C   LIG    1        2.806  -2.267   2.337  0.00  0.00    +0.260 C 
ATOM      9  H   LIG    1        1.013  -2.232   3.327  0.00  0.00    +0.420 HD
ENDROOT
BRANCH   1  10
ATOM     10  C   LIG    1        0.633  -2.034   1.328  0.00  0.00    +0.170 C 
ATOM     11  C   LIG    1        1.078  -2.717   0.033  0.00  0.00    +0.090 C 
BRANCH  10  12
ATOM     12  C   LIG    1       -0.866  -2.262   1.536  0.00  0.00    -0.020 C 
ATOM     13  C   LIG    1       -1.319  -1.545   2.810  0.00  0.00    +0.040 C 
BRANCH  12  15
ATOM     14  C   LIG    1       -3.122  -2.046   0.486  0.00  0.00    +0.030 C 
ATOM     15  C   LIG    1       -1.637  -1.708   0.337  0.00  0.00    +0.030 C 
ENDBRANCH  12  15
ENDBRANCH  10  12
ENDBRANCH   1  10
TORSDOF 3
ENDMDL
MODEL      869
REMARK  Name = ZINC000605151522
REMARK                            x       y       z     vdW  Elec       q    Type
REMARK                         _______ _______ _______ _____ _____    ______ ____
ROOT
ATOM      1  N   LIG    1        1.500  -3.981   2.464  0.00  0.00    -0.380 N 
ATOM      2  C   LIG    1        2.271  -4.203   1.235  0.00  0.00    +0.250 C 
ATOM      3  C   LIG    1        2.687  -5.673   1.148  0.00  0.00    +0.050 C 
ATOM      4  C   LIG    1        3.549  -6.027   2.363  0.00  0.00    +0.030 C 
ATOM      5  C   LIG    1        2.761  -5.721   3.641  0.00  0.00    +0.060 C 
ATOM      6  C   LIG    1        2.344  -4.249   3.635  0.00  0.00    +0.170 C 
ATOM      7  H   LIG    1        0.703  -4.600   2.477  0.00  0.00    +0.420 HD
ENDROOT
BRANCH   6   8
ATOM      8  C   LIG    1        1.556  -3.938   4.909  0.00  0.00    -0.020 C 
ATOM      9  C   LIG    1        2.428  -4.230   6.132  0.00  0.00    +0.070 C 
ATOM     10  C   LIG    1        0.300  -4.811   4.958  0.00  0.00    +0.040 C 
ENDBRANCH   6   8
BRANCH   1  11
ATOM     11  C   LIG    1        1.036  -2.588   2.505  0.00  0.00    +0.240 C 
BRANCH  11  12
ATOM     12  C   LIG    1        0.051  -2.345   1.360  0.00  0.00    +0.030 C 
BRANCH  12  13
ATOM     13  C   LIG    1       -0.431  -0.893   1.403  0.00  0.00    +0.020 C 
BRANCH  13  15
ATOM     14  C   LIG    1       -1.899   0.802   0.300  0.00  0.00    +0.020 C 
ATOM     15  C   LIG    1       -1.417  -0.650   0.258  0.00  0.00    +0.010 C 
ENDBRANCH  13  15
ENDBRANCH  12  13
ENDBRANCH  11  12
ENDBRANCH   1  11
TORSDOF 5
ENDMDL
MODEL      870
REMARK  Name = ZINC001241563649
REMARK                            x       y       z     vdW  Elec       q    Type
REMARK                         _______ _______ _______ _____ _____    ______ ____
ROOT
ATOM      1  C   LIG    1       -0.018   1.503   0.010  0.00  0.00    +0.200 C 
ATOM      2  C   LIG    1        0.002  -0.004   0.002  0.00  0.00    +0.180 A 
ATOM      3  C   LIG    1        0.005  -0.678  -1.202  0.00  0.00    +0.040 A 
ATOM      4  C   LIG    1        0.025  -2.077  -1.196  0.00  0.00    +0.100 A 
ATOM      5  C   LIG    1        0.039  -2.732   0.041  0.00  0.00    +0.020 A 
ATOM      6  C   LIG    1        0.035  -1.979   1.197  0.00  0.00    +0.180 A 
ATOM      7  C   LIG    1        0.050  -2.672   2.535  0.00  0.00    +0.190 C 
ATOM      8  N   LIG    1        0.022  -0.661   1.146  0.00  0.00    -0.470 N 
ATOM      9  H   LIG    1        0.019  -0.159   1.976  0.00  0.00    +0.440 HD
ENDROOT
BRANCH   4  10
ATOM     10  C   LIG    1        0.029  -2.842  -2.460  0.00  0.00    -0.040 C 
ATOM     11  C   LIG    1        0.048  -4.168  -2.433  0.00  0.00    +0.090 C 
BRANCH  11  12
ATOM     12  C   LIG    1        0.052  -4.947  -3.723  0.00  0.00    -0.050 C 
ATOM     13  C   LIG    1       -1.185  -5.845  -3.781  0.00  0.00    +0.050 C 
ATOM     14  C   LIG    1        1.313  -5.811  -3.792  0.00  0.00    +0.050 C 
ATOM     15  C   LIG    1        0.034  -3.977  -4.906  0.00  0.00    +0.040 C 
ENDBRANCH  11  12
ENDBRANCH   4  10
TORSDOF 2
ENDMDL
MODEL      871
REMARK  Name = ZINC001169395329
REMARK                            x       y       z     vdW  Elec       q    Type
REMARK                         _______ _______ _______ _____ _____    ______ ____
ROOT
ATOM      1  N   LIG    1        1.366  -2.522   2.489  0.00  0.00    -0.380 N 
ATOM      2  C   LIG    1        0.699  -2.027   3.669  0.00  0.00    +0.240 C 
ATOM      3  C   LIG    1        1.774  -1.693   4.715  0.00  0.00    +0.050 C 
ATOM      4  C   LIG    1        2.203  -2.853   5.486  0.00  0.00    +0.030 C 
ATOM      5  C   LIG    1        2.832  -3.930   4.567  0.00  0.00    +0.030 C 
ATOM      6  C   LIG    1        1.731  -4.636   3.821  0.00  0.00    -0.020 C 
ATOM      7  C   LIG    1        2.147  -6.090   3.594  0.00  0.00    +0.070 C 
ATOM      8  C   LIG    1        1.406  -3.999   2.458  0.00  0.00    +0.250 C 
ATOM      9  H   LIG    1        2.311  -2.168   2.474  0.00  0.00    +0.420 HD
ENDROOT
BRANCH   1  10
ATOM     10  C   LIG    1        0.655  -2.037   1.299  0.00  0.00    +0.160 C 
ATOM     11  C   LIG    1        1.300  -2.630   0.044  0.00  0.00    +0.080 C 
BRANCH  10  12
ATOM     12  C   LIG    1        0.737  -0.511   1.242  0.00  0.00    -0.010 C 
ATOM     13  C   LIG    1        2.204  -0.081   1.166  0.00  0.00    +0.050 C 
BRANCH  12  15
ATOM     14  C   LIG    1       -0.031   1.524   0.011  0.00  0.00    +0.030 C 
ATOM     15  C   LIG    1       -0.006  -0.006   0.003  0.00  0.00    +0.030 C 
ENDBRANCH  12  15
ENDBRANCH  10  12
ENDBRANCH   1  10
TORSDOF 3
ENDMDL
MODEL      872
REMARK  Name = ZINC001169463379
REMARK                            x       y       z     vdW  Elec       q    Type
REMARK                         _______ _______ _______ _____ _____    ______ ____
ROOT
ATOM      1  N   LIG    1       -2.960  -2.304   0.354  0.00  0.00    -0.380 N 
ATOM      2  C   LIG    1       -3.598  -1.984  -0.941  0.00  0.00    +0.250 C 
ATOM      3  C   LIG    1       -4.917  -2.741  -1.181  0.00  0.00    +0.060 C 
ATOM      4  C   LIG    1       -5.806  -2.797   0.032  0.00  0.00    +0.020 C 
ATOM      5  C   LIG    1       -5.487  -4.088   0.827  0.00  0.00    +0.030 C 
ATOM      6  C   LIG    1       -4.236  -3.953   1.563  0.00  0.00    +0.050 C 
ATOM      7  C   LIG    1       -3.022  -3.715   0.649  0.00  0.00    +0.160 C 
ATOM      8  C   LIG    1       -1.741  -4.151   1.365  0.00  0.00    +0.080 C 
ATOM      9  H   LIG    1       -3.431  -1.795   1.087  0.00  0.00    +0.420 HD
ENDROOT
BRANCH   1  10
ATOM     10  C   LIG    1       -1.553  -1.885   0.310  0.00  0.00    +0.250 C 
BRANCH  10  11
ATOM     11  C   LIG    1       -1.477  -0.376   0.073  0.00  0.00    -0.030 C 
BRANCH  11  13
ATOM     12  C   LIG    1       -2.154   1.860   0.959  0.00  0.00    +0.040 C 
ATOM     13  C   LIG    1       -2.118   0.359   1.252  0.00  0.00    +0.000 C 
ENDBRANCH  11  13
BRANCH  11  14
ATOM     14  C   LIG    1       -0.012   0.047  -0.057  0.00  0.00    +0.040 C 
ATOM     15  C   LIG    1        0.587  -0.571  -1.322  0.00  0.00    +0.020 C 
ENDBRANCH  11  14
ENDBRANCH  10  11
ENDBRANCH   1  10
TORSDOF 4
ENDMDL
MODEL      873
REMARK  Name = ZINC001169463377
REMARK                            x       y       z     vdW  Elec       q    Type
REMARK                         _______ _______ _______ _____ _____    ______ ____
ROOT
ATOM      1  N   LIG    1       -3.086  -2.351   0.234  0.00  0.00    -0.380 N 
ATOM      2  C   LIG    1       -3.607  -2.066  -1.081  0.00  0.00    +0.240 C 
ATOM      3  C   LIG    1       -5.053  -1.571  -0.918  0.00  0.00    +0.050 C 
ATOM      4  C   LIG    1       -6.020  -2.656  -0.807  0.00  0.00    +0.030 C 
ATOM      5  C   LIG    1       -5.734  -3.531   0.439  0.00  0.00    +0.020 C 
ATOM      6  C   LIG    1       -4.545  -4.410   0.152  0.00  0.00    +0.060 C 
ATOM      7  C   LIG    1       -3.203  -3.785   0.574  0.00  0.00    +0.160 C 
ATOM      8  C   LIG    1       -2.070  -4.546  -0.118  0.00  0.00    +0.070 C 
ATOM      9  H   LIG    1       -3.597  -1.809   0.914  0.00  0.00    +0.420 HD
ENDROOT
BRANCH   1  10
ATOM     10  C   LIG    1       -1.669  -1.963   0.281  0.00  0.00    +0.250 C 
BRANCH  10  11
ATOM     11  C   LIG    1       -1.550  -0.447   0.111  0.00  0.00    -0.020 C 
BRANCH  11  13
ATOM     12  C   LIG    1       -2.200   1.766   1.071  0.00  0.00    +0.040 C 
ATOM     13  C   LIG    1       -2.209   0.253   1.301  0.00  0.00    +0.000 C 
ENDBRANCH  11  13
BRANCH  11  14
ATOM     14  C   LIG    1       -0.072  -0.057   0.044  0.00  0.00    +0.040 C 
ATOM     15  C   LIG    1        0.552  -0.635  -1.228  0.00  0.00    +0.020 C 
ENDBRANCH  11  14
ENDBRANCH  10  11
ENDBRANCH   1  10
TORSDOF 4
ENDMDL
MODEL      874
REMARK  Name = ZINC001169395327
REMARK                            x       y       z     vdW  Elec       q    Type
REMARK                         _______ _______ _______ _____ _____    ______ ____
ROOT
ATOM      1  N   LIG    1        1.377  -2.645   2.456  0.00  0.00    -0.380 N 
ATOM      2  C   LIG    1        1.162  -4.072   2.438  0.00  0.00    +0.240 C 
ATOM      3  C   LIG    1        1.047  -4.549   3.895  0.00  0.00    +0.050 C 
ATOM      4  C   LIG    1        2.341  -4.787   4.523  0.00  0.00    +0.030 C 
ATOM      5  C   LIG    1        3.182  -3.487   4.573  0.00  0.00    +0.030 C 
ATOM      6  C   LIG    1        3.725  -3.206   3.197  0.00  0.00    -0.010 C 
ATOM      7  C   LIG    1        5.088  -2.526   3.338  0.00  0.00    +0.070 C 
ATOM      8  C   LIG    1        2.812  -2.304   2.348  0.00  0.00    +0.250 C 
ATOM      9  H   LIG    1        1.014  -2.269   3.318  0.00  0.00    +0.420 HD
ENDROOT
BRANCH   1  10
ATOM     10  C   LIG    1        0.656  -2.039   1.329  0.00  0.00    +0.160 C 
ATOM     11  C   LIG    1        1.109  -2.694   0.022  0.00  0.00    +0.090 C 
BRANCH  10  12
ATOM     12  C   LIG    1       -0.848  -2.253   1.511  0.00  0.00    -0.010 C 
ATOM     13  C   LIG    1       -1.287  -1.666   2.855  0.00  0.00    +0.030 C 
BRANCH  12  15
ATOM     14  C   LIG    1       -3.096  -1.871   0.491  0.00  0.00    +0.030 C 
ATOM     15  C   LIG    1       -1.604  -1.554   0.379  0.00  0.00    +0.030 C 
ENDBRANCH  12  15
ENDBRANCH  10  12
ENDBRANCH   1  10
TORSDOF 3
ENDMDL
MODEL      875
REMARK  Name = ZINC000606434440
REMARK                            x       y       z     vdW  Elec       q    Type
REMARK                         _______ _______ _______ _____ _____    ______ ____
ROOT
ATOM      1  N   LIG    1        1.473  -2.527   2.423  0.00  0.00    -0.380 N 
ATOM      2  C   LIG    1        0.722  -2.152   3.627  0.00  0.00    +0.250 C 
ATOM      3  C   LIG    1       -0.699  -2.713   3.542  0.00  0.00    +0.050 C 
ATOM      4  C   LIG    1       -0.633  -4.240   3.435  0.00  0.00    +0.030 C 
ATOM      5  C   LIG    1        0.215  -4.620   2.217  0.00  0.00    +0.060 C 
ATOM      6  C   LIG    1        1.600  -3.988   2.352  0.00  0.00    +0.170 C 
ATOM      7  H   LIG    1        2.392  -2.112   2.458  0.00  0.00    +0.420 HD
ENDROOT
BRANCH   6   8
ATOM      8  C   LIG    1        2.452  -4.364   1.138  0.00  0.00    -0.020 C 
ATOM      9  C   LIG    1        3.839  -3.732   1.273  0.00  0.00    +0.040 C 
BRANCH   8  10
ATOM     10  C   LIG    1        2.590  -5.886   1.064  0.00  0.00    +0.030 C 
ATOM     11  C   LIG    1        3.335  -6.269  -0.216  0.00  0.00    +0.030 C 
ENDBRANCH   8  10
ENDBRANCH   6   8
BRANCH   1  12
ATOM     12  C   LIG    1        0.763  -2.041   1.233  0.00  0.00    +0.240 C 
BRANCH  12  13
ATOM     13  C   LIG    1        0.742  -0.511   1.242  0.00  0.00    +0.020 C 
BRANCH  13  15
ATOM     14  C   LIG    1       -0.019   1.526   0.010  0.00  0.00    +0.030 C 
ATOM     15  C   LIG    1        0.002  -0.004   0.002  0.00  0.00    +0.020 C 
ENDBRANCH  13  15
ENDBRANCH  12  13
ENDBRANCH   1  12
TORSDOF 5
ENDMDL
MODEL      876
REMARK  Name = ZINC000388627448
REMARK                            x       y       z     vdW  Elec       q    Type
REMARK                         _______ _______ _______ _____ _____    ______ ____
ROOT
ATOM      1  N   LIG    1        1.465  -0.712  -1.866  0.00  0.00    -0.380 N 
ATOM      2  H   LIG    1        2.290  -0.325  -2.299  0.00  0.00    +0.420 HD
ENDROOT
BRANCH   1   3
ATOM      3  C   LIG    1        0.282   0.035  -2.314  0.00  0.00    +0.160 C 
ATOM      4  C   LIG    1        0.518   1.533  -2.115  0.00  0.00    +0.080 C 
ATOM      5  C   LIG    1       -0.936  -0.403  -1.497  0.00  0.00    +0.080 C 
ENDBRANCH   1   3
BRANCH   1   7
ATOM      6  C   LIG    1        1.957   0.825  -0.023  0.00  0.00    +0.080 C 
ATOM      7  C   LIG    1        1.585  -0.609  -0.405  0.00  0.00    +0.240 C 
ENDBRANCH   1   7
BRANCH   1   8
ATOM      8  C   LIG    1        1.328  -2.123  -2.248  0.00  0.00    +0.240 C 
BRANCH   8   9
ATOM      9  C   LIG    1        1.282  -2.237  -3.773  0.00  0.00    +0.040 C 
BRANCH   9  10
ATOM     10  C   LIG    1        1.169  -3.709  -4.172  0.00  0.00    -0.060 C 
ATOM     11  C   LIG    1       -0.110  -4.302  -3.579  0.00  0.00    +0.020 C 
ATOM     12  C   LIG    1        2.381  -4.477  -3.639  0.00  0.00    +0.020 C 
BRANCH  10  13
ATOM     13  C   LIG    1        1.124  -3.823  -5.697  0.00  0.00    +0.030 C 
ATOM     14  C   LIG    1        1.011  -5.295  -6.096  0.00  0.00    +0.020 C 
ENDBRANCH  10  13
ENDBRANCH   9  10
ENDBRANCH   8   9
ENDBRANCH   1   8
TORSDOF 6
ENDMDL
MODEL      877
REMARK  Name = ZINC000606434105
REMARK                            x       y       z     vdW  Elec       q    Type
REMARK                         _______ _______ _______ _____ _____    ______ ____
ROOT
ATOM      1  C   LIG    1        0.645  -1.998  -1.320  0.00  0.00    +0.170 C 
ATOM      2  C   LIG    1       -0.853  -2.292  -1.415  0.00  0.00    +0.060 C 
ATOM      3  C   LIG    1       -1.063  -3.803  -1.556  0.00  0.00    +0.030 C 
ATOM      4  C   LIG    1       -0.294  -4.303  -2.783  0.00  0.00    +0.050 C 
ATOM      5  C   LIG    1        1.183  -3.933  -2.637  0.00  0.00    +0.250 C 
ATOM      6  N   LIG    1        1.319  -2.475  -2.534  0.00  0.00    -0.380 N 
ATOM      7  H   LIG    1        2.297  -2.232  -2.492  0.00  0.00    +0.420 HD
ENDROOT
BRANCH   1   8
ATOM      8  C   LIG    1        0.860  -0.489  -1.178  0.00  0.00    -0.020 C 
ATOM      9  C   LIG    1        2.358  -0.194  -1.082  0.00  0.00    +0.040 C 
BRANCH   8  11
ATOM     10  C   LIG    1        0.268   1.533   0.164  0.00  0.00    +0.030 C 
ATOM     11  C   LIG    1        0.160   0.009   0.087  0.00  0.00    +0.030 C 
ENDBRANCH   8  11
ENDBRANCH   1   8
BRANCH   6  12
ATOM     12  C   LIG    1        0.708  -1.843  -3.711  0.00  0.00    +0.250 C 
BRANCH  12  13
ATOM     13  C   LIG    1        1.487  -2.242  -4.965  0.00  0.00    -0.030 C 
ATOM     14  C   LIG    1        2.901  -1.662  -4.893  0.00  0.00    +0.030 C 
ATOM     15  C   LIG    1        0.774  -1.696  -6.204  0.00  0.00    +0.070 C 
ENDBRANCH  12  13
ENDBRANCH   6  12
TORSDOF 4
ENDMDL
MODEL      878
REMARK  Name = ZINC000606434438
REMARK                            x       y       z     vdW  Elec       q    Type
REMARK                         _______ _______ _______ _____ _____    ______ ____
ROOT
ATOM      1  N   LIG    1        1.593  -2.536   2.507  0.00  0.00    -0.380 N 
ATOM      2  C   LIG    1        0.856  -2.066   3.686  0.00  0.00    +0.250 C 
ATOM      3  C   LIG    1       -0.638  -2.341   3.501  0.00  0.00    +0.050 C 
ATOM      4  C   LIG    1       -0.857  -3.846   3.327  0.00  0.00    +0.030 C 
ATOM      5  C   LIG    1       -0.025  -4.339   2.139  0.00  0.00    +0.060 C 
ATOM      6  C   LIG    1        1.445  -3.990   2.376  0.00  0.00    +0.170 C 
ATOM      7  H   LIG    1        2.571  -2.307   2.610  0.00  0.00    +0.420 HD
ENDROOT
BRANCH   6   8
ATOM      8  C   LIG    1        2.282  -4.481   1.192  0.00  0.00    -0.020 C 
ATOM      9  C   LIG    1        2.205  -6.006   1.111  0.00  0.00    +0.070 C 
BRANCH   8  10
ATOM     10  C   LIG    1        3.738  -4.052   1.385  0.00  0.00    +0.000 C 
ATOM     11  C   LIG    1        4.550  -4.432   0.145  0.00  0.00    +0.040 C 
ENDBRANCH   8  10
ENDBRANCH   6   8
BRANCH   1  12
ATOM     12  C   LIG    1        1.061  -1.881   1.305  0.00  0.00    +0.240 C 
BRANCH  12  13
ATOM     13  C   LIG    1        1.333  -0.377   1.382  0.00  0.00    +0.020 C 
BRANCH  13  15
ATOM     14  C   LIG    1        1.050   1.810   0.206  0.00  0.00    +0.030 C 
ATOM     15  C   LIG    1        0.779   0.306   0.130  0.00  0.00    +0.020 C 
ENDBRANCH  13  15
ENDBRANCH  12  13
ENDBRANCH   1  12
TORSDOF 5
ENDMDL
MODEL      879
REMARK  Name = ZINC000606434107
REMARK                            x       y       z     vdW  Elec       q    Type
REMARK                         _______ _______ _______ _____ _____    ______ ____
ROOT
ATOM      1  C   LIG    1        0.464  -1.191  -1.554  0.00  0.00    +0.170 C 
ATOM      2  C   LIG    1       -0.688  -2.184  -1.386  0.00  0.00    +0.060 C 
ATOM      3  C   LIG    1       -0.166  -3.453  -0.705  0.00  0.00    +0.030 C 
ATOM      4  C   LIG    1        0.982  -4.032  -1.537  0.00  0.00    +0.050 C 
ATOM      5  C   LIG    1        2.072  -2.970  -1.700  0.00  0.00    +0.250 C 
ATOM      6  N   LIG    1        1.517  -1.794  -2.381  0.00  0.00    -0.380 N 
ATOM      7  H   LIG    1        2.250  -1.119  -2.534  0.00  0.00    +0.420 HD
ENDROOT
BRANCH   1   8
ATOM      8  C   LIG    1       -0.052   0.078  -2.235  0.00  0.00    -0.020 C 
ATOM      9  C   LIG    1       -1.103   0.743  -1.343  0.00  0.00    +0.070 C 
BRANCH   8  11
ATOM     10  C   LIG    1        0.619   2.260  -3.251  0.00  0.00    +0.040 C 
ATOM     11  C   LIG    1        1.111   1.046  -2.460  0.00  0.00    +0.000 C 
ENDBRANCH   8  11
ENDBRANCH   1   8
BRANCH   6  12
ATOM     12  C   LIG    1        0.950  -2.201  -3.673  0.00  0.00    +0.250 C 
BRANCH  12  13
ATOM     13  C   LIG    1        2.072  -2.687  -4.593  0.00  0.00    -0.020 C 
ATOM     14  C   LIG    1        1.723  -2.350  -6.044  0.00  0.00    +0.070 C 
ATOM     15  C   LIG    1        2.233  -4.201  -4.445  0.00  0.00    +0.050 C 
ENDBRANCH  12  13
ENDBRANCH   6  12
TORSDOF 4
ENDMDL
MODEL      880
REMARK  Name = ZINC000606434106
REMARK                            x       y       z     vdW  Elec       q    Type
REMARK                         _______ _______ _______ _____ _____    ______ ____
ROOT
ATOM      1  C   LIG    1        0.671  -1.971  -1.313  0.00  0.00    +0.170 C 
ATOM      2  C   LIG    1        1.255  -2.684  -0.092  0.00  0.00    +0.060 C 
ATOM      3  C   LIG    1        1.022  -4.191  -0.228  0.00  0.00    +0.030 C 
ATOM      4  C   LIG    1        1.648  -4.678  -1.538  0.00  0.00    +0.050 C 
ATOM      5  C   LIG    1        1.049  -3.891  -2.706  0.00  0.00    +0.250 C 
ATOM      6  N   LIG    1        1.328  -2.461  -2.531  0.00  0.00    -0.380 N 
ATOM      7  H   LIG    1        2.324  -2.320  -2.454  0.00  0.00    +0.420 HD
ENDROOT
BRANCH   1   8
ATOM      8  C   LIG    1        0.900  -0.464  -1.182  0.00  0.00    -0.010 C 
ATOM      9  C   LIG    1        2.402  -0.182  -1.098  0.00  0.00    +0.040 C 
BRANCH   8  11
ATOM     10  C   LIG    1        0.336   1.571   0.153  0.00  0.00    +0.030 C 
ATOM     11  C   LIG    1        0.213   0.048   0.086  0.00  0.00    +0.030 C 
ENDBRANCH   8  11
ENDBRANCH   1   8
BRANCH   6  12
ATOM     12  C   LIG    1        0.818  -1.718  -3.691  0.00  0.00    +0.240 C 
BRANCH  12  13
ATOM     13  C   LIG    1        1.592  -2.135  -4.944  0.00  0.00    -0.030 C 
ATOM     14  C   LIG    1        3.054  -1.705  -4.807  0.00  0.00    +0.030 C 
ATOM     15  C   LIG    1        0.975  -1.462  -6.171  0.00  0.00    +0.070 C 
ENDBRANCH  12  13
ENDBRANCH   6  12
TORSDOF 4
ENDMDL
MODEL      881
REMARK  Name = ZINC000606434439
REMARK                            x       y       z     vdW  Elec       q    Type
REMARK                         _______ _______ _______ _____ _____    ______ ____
ROOT
ATOM      1  N   LIG    1        1.699  -2.547   2.543  0.00  0.00    -0.380 N 
ATOM      2  C   LIG    1        1.018  -2.057   3.747  0.00  0.00    +0.250 C 
ATOM      3  C   LIG    1        1.641  -2.701   4.988  0.00  0.00    +0.050 C 
ATOM      4  C   LIG    1        1.489  -4.222   4.897  0.00  0.00    +0.030 C 
ATOM      5  C   LIG    1        2.138  -4.714   3.600  0.00  0.00    +0.060 C 
ATOM      6  C   LIG    1        1.496  -3.995   2.412  0.00  0.00    +0.170 C 
ATOM      7  H   LIG    1        2.687  -2.353   2.613  0.00  0.00    +0.420 HD
ENDROOT
BRANCH   6   8
ATOM      8  C   LIG    1        2.141  -4.482   1.113  0.00  0.00    -0.010 C 
ATOM      9  C   LIG    1        3.637  -4.164   1.136  0.00  0.00    +0.050 C 
BRANCH   8  10
ATOM     10  C   LIG    1        1.942  -5.993   0.980  0.00  0.00    +0.030 C 
ATOM     11  C   LIG    1        2.476  -6.460  -0.375  0.00  0.00    +0.030 C 
ENDBRANCH   8  10
ENDBRANCH   6   8
BRANCH   1  12
ATOM     12  C   LIG    1        1.151  -1.868   1.361  0.00  0.00    +0.240 C 
BRANCH  12  13
ATOM     13  C   LIG    1        1.480  -0.376   1.432  0.00  0.00    +0.030 C 
BRANCH  13  15
ATOM     14  C   LIG    1        1.237   1.824   0.273  0.00  0.00    +0.030 C 
ATOM     15  C   LIG    1        0.909   0.332   0.202  0.00  0.00    +0.020 C 
ENDBRANCH  13  15
ENDBRANCH  12  13
ENDBRANCH   1  12
TORSDOF 5
ENDMDL
MODEL      882
REMARK  Name = ZINC000606434437
REMARK                            x       y       z     vdW  Elec       q    Type
REMARK                         _______ _______ _______ _____ _____    ______ ____
ROOT
ATOM      1  N   LIG    1        1.461  -2.501   2.377  0.00  0.00    -0.380 N 
ATOM      2  C   LIG    1        0.568  -1.969   3.413  0.00  0.00    +0.250 C 
ATOM      3  C   LIG    1        0.931  -2.580   4.768  0.00  0.00    +0.050 C 
ATOM      4  C   LIG    1        0.778  -4.102   4.692  0.00  0.00    +0.030 C 
ATOM      5  C   LIG    1        1.657  -4.638   3.559  0.00  0.00    +0.060 C 
ATOM      6  C   LIG    1        1.265  -3.950   2.249  0.00  0.00    +0.170 C 
ATOM      7  H   LIG    1        2.419  -2.313   2.630  0.00  0.00    +0.420 HD
ENDROOT
BRANCH   6   8
ATOM      8  C   LIG    1        2.141  -4.482   1.113  0.00  0.00    -0.010 C 
ATOM      9  C   LIG    1        1.942  -5.993   0.980  0.00  0.00    +0.070 C 
BRANCH   8  10
ATOM     10  C   LIG    1        3.610  -4.186   1.420  0.00  0.00    +0.000 C 
ATOM     11  C   LIG    1        4.474  -4.604   0.229  0.00  0.00    +0.040 C 
ENDBRANCH   8  10
ENDBRANCH   6   8
BRANCH   1  12
ATOM     12  C   LIG    1        1.159  -1.853   1.093  0.00  0.00    +0.240 C 
BRANCH  12  13
ATOM     13  C   LIG    1        1.489  -0.362   1.185  0.00  0.00    +0.030 C 
BRANCH  13  15
ATOM     14  C   LIG    1        1.505   1.804  -0.061  0.00  0.00    +0.030 C 
ATOM     15  C   LIG    1        1.175   0.312  -0.152  0.00  0.00    +0.020 C 
ENDBRANCH  13  15
ENDBRANCH  12  13
ENDBRANCH   1  12
TORSDOF 5
ENDMDL
MODEL      883
REMARK  Name = ZINC000606434108
REMARK                            x       y       z     vdW  Elec       q    Type
REMARK                         _______ _______ _______ _____ _____    ______ ____
ROOT
ATOM      1  C   LIG    1        0.121  -1.220  -1.928  0.00  0.00    +0.170 C 
ATOM      2  C   LIG    1        0.515  -0.887  -0.487  0.00  0.00    +0.060 C 
ATOM      3  C   LIG    1        1.215  -2.097   0.138  0.00  0.00    +0.030 C 
ATOM      4  C   LIG    1        2.424  -2.476  -0.722  0.00  0.00    +0.050 C 
ATOM      5  C   LIG    1        1.960  -2.750  -2.154  0.00  0.00    +0.250 C 
ATOM      6  N   LIG    1        1.323  -1.547  -2.704  0.00  0.00    -0.380 N 
ATOM      7  H   LIG    1        1.972  -0.775  -2.660  0.00  0.00    +0.420 HD
ENDROOT
BRANCH   1   8
ATOM      8  C   LIG    1       -0.578  -0.013  -2.557  0.00  0.00    -0.010 C 
ATOM      9  C   LIG    1       -1.866   0.288  -1.787  0.00  0.00    +0.070 C 
BRANCH   8  11
ATOM     10  C   LIG    1       -0.299   2.375  -3.234  0.00  0.00    +0.040 C 
ATOM     11  C   LIG    1        0.349   1.202  -2.496  0.00  0.00    +0.000 C 
ENDBRANCH   8  11
ENDBRANCH   1   8
BRANCH   6  12
ATOM     12  C   LIG    1        0.947  -1.790  -4.103  0.00  0.00    +0.240 C 
BRANCH  12  13
ATOM     13  C   LIG    1        2.210  -1.993  -4.943  0.00  0.00    -0.020 C 
ATOM     14  C   LIG    1        2.008  -1.370  -6.326  0.00  0.00    +0.070 C 
ATOM     15  C   LIG    1        2.488  -3.490  -5.093  0.00  0.00    +0.040 C 
ENDBRANCH  12  13
ENDBRANCH   6  12
TORSDOF 4
ENDMDL
MODEL      884
REMARK  Name = ZINC000680433951
REMARK                            x       y       z     vdW  Elec       q    Type
REMARK                         _______ _______ _______ _____ _____    ______ ____
ROOT
ATOM      1  C   LIG    1        0.913  -1.959   1.317  0.00  0.00    +0.160 C 
ATOM      2  C   LIG    1        1.496  -2.365   2.672  0.00  0.00    +0.060 C 
ATOM      3  C   LIG    1        1.526  -3.893   2.772  0.00  0.00    +0.030 C 
ATOM      4  C   LIG    1        2.335  -4.456   1.600  0.00  0.00    +0.050 C 
ATOM      5  C   LIG    1        1.720  -3.972   0.285  0.00  0.00    +0.240 C 
ATOM      6  N   LIG    1        1.746  -2.506   0.239  0.00  0.00    -0.380 N 
ATOM      7  H   LIG    1        2.695  -2.183   0.352  0.00  0.00    +0.420 HD
ENDROOT
BRANCH   1   8
ATOM      8  C   LIG    1        0.881  -0.433   1.213  0.00  0.00    +0.030 C 
BRANCH   8  10
ATOM      9  C   LIG    1       -0.015   1.661   2.240  0.00  0.00    +0.030 C 
ATOM     10  C   LIG    1       -0.053   0.132   2.285  0.00  0.00    +0.030 C 
ENDBRANCH   8  10
ENDBRANCH   1   8
BRANCH   6  11
ATOM     11  C   LIG    1        1.226  -2.048  -1.056  0.00  0.00    +0.290 C 
BRANCH  11  12
ATOM     12  C   LIG    1        2.136  -2.523  -2.159  0.00  0.00    -0.130 C 
ATOM     13  C   LIG    1        1.649  -3.223  -3.154  0.00  0.00    -0.040 C 
ATOM     14  C   LIG    1        2.559  -3.698  -4.257  0.00  0.00    +0.100 C 
ATOM     15  C   LIG    1        0.179  -3.552  -3.196  0.00  0.00    +0.080 C 
ENDBRANCH  11  12
ENDBRANCH   6  11
TORSDOF 4
ENDMDL
MODEL      885
REMARK  Name = ZINC000680433952
REMARK                            x       y       z     vdW  Elec       q    Type
REMARK                         _______ _______ _______ _____ _____    ______ ____
ROOT
ATOM      1  C   LIG    1        0.785  -2.193   1.247  0.00  0.00    +0.170 C 
ATOM      2  C   LIG    1        1.577  -2.766   2.424  0.00  0.00    +0.060 C 
ATOM      3  C   LIG    1        1.481  -4.295   2.401  0.00  0.00    +0.030 C 
ATOM      4  C   LIG    1        0.006  -4.705   2.438  0.00  0.00    +0.050 C 
ATOM      5  C   LIG    1       -0.727  -4.059   1.261  0.00  0.00    +0.250 C 
ATOM      6  N   LIG    1       -0.621  -2.598   1.355  0.00  0.00    -0.370 N 
ATOM      7  H   LIG    1       -1.150  -2.175   0.608  0.00  0.00    +0.420 HD
ENDROOT
BRANCH   1   8
ATOM      8  C   LIG    1        0.878  -0.666   1.266  0.00  0.00    +0.050 C 
BRANCH   8  10
ATOM      9  C   LIG    1        0.287   1.429   0.040  0.00  0.00    +0.030 C 
ATOM     10  C   LIG    1        0.194  -0.098   0.021  0.00  0.00    -0.000 C 
ENDBRANCH   8  10
ENDBRANCH   1   8
BRANCH   6  11
ATOM     11  C   LIG    1       -1.159  -2.153   2.648  0.00  0.00    +0.280 C 
BRANCH  11  12
ATOM     12  C   LIG    1       -2.640  -2.424   2.696  0.00  0.00    -0.120 C 
ATOM     13  C   LIG    1       -3.154  -3.080   3.707  0.00  0.00    -0.040 C 
ATOM     14  C   LIG    1       -4.606  -3.483   3.685  0.00  0.00    +0.100 C 
ATOM     15  C   LIG    1       -2.292  -3.434   4.891  0.00  0.00    +0.090 C 
ENDBRANCH  11  12
ENDBRANCH   6  11
TORSDOF 4
ENDMDL
MODEL      886
REMARK  Name = ZINC000606901128
REMARK                            x       y       z     vdW  Elec       q    Type
REMARK                         _______ _______ _______ _____ _____    ______ ____
ROOT
ATOM      1  C   LIG    1        0.955  -0.091  -1.493  0.00  0.00    +0.160 C 
ATOM      2  C   LIG    1        1.278  -1.524  -1.169  0.00  0.00    +0.050 C 
ATOM      3  C   LIG    1        2.588  -1.901  -1.894  0.00  0.00    +0.030 C 
ATOM      4  C   LIG    1        2.372  -2.179  -3.309  0.00  0.00    +0.020 C 
ATOM      5  C   LIG    1        1.806  -0.956  -4.063  0.00  0.00    +0.050 C 
ATOM      6  C   LIG    1        0.335  -0.858  -3.766  0.00  0.00    +0.250 C 
ATOM      7  N   LIG    1        0.029   0.047  -2.638  0.00  0.00    -0.380 N 
ATOM      8  H   LIG    1        0.071   0.999  -2.970  0.00  0.00    +0.420 HD
ENDROOT
BRANCH   1  10
ATOM      9  C   LIG    1        0.095   2.050  -0.535  0.00  0.00    +0.020 C 
ATOM     10  C   LIG    1        0.318   0.561  -0.264  0.00  0.00    +0.040 C 
ENDBRANCH   1  10
BRANCH   7  11
ATOM     11  C   LIG    1       -1.337  -0.227  -2.173  0.00  0.00    +0.280 C 
BRANCH  11  12
ATOM     12  C   LIG    1       -2.313   0.055  -3.286  0.00  0.00    -0.130 C 
ATOM     13  C   LIG    1       -3.328   0.857  -3.079  0.00  0.00    -0.040 C 
ATOM     14  C   LIG    1       -4.223   1.250  -4.226  0.00  0.00    +0.090 C 
ATOM     15  C   LIG    1       -3.601   1.385  -1.694  0.00  0.00    +0.090 C 
ENDBRANCH  11  12
ENDBRANCH   7  11
TORSDOF 3
ENDMDL
MODEL      887
REMARK  Name = ZINC000606901127
REMARK                            x       y       z     vdW  Elec       q    Type
REMARK                         _______ _______ _______ _____ _____    ______ ____
ROOT
ATOM      1  C   LIG    1        1.589  -1.786  -0.866  0.00  0.00    +0.150 C 
ATOM      2  C   LIG    1        1.915  -3.282  -0.723  0.00  0.00    +0.060 C 
ATOM      3  C   LIG    1        3.105  -3.718  -1.600  0.00  0.00    +0.010 C 
ATOM      4  C   LIG    1        3.076  -3.121  -2.982  0.00  0.00    +0.040 C 
ATOM      5  C   LIG    1        3.863  -1.788  -2.978  0.00  0.00    +0.060 C 
ATOM      6  C   LIG    1        3.095  -0.726  -2.335  0.00  0.00    +0.240 C 
ATOM      7  N   LIG    1        2.794  -0.990  -0.916  0.00  0.00    -0.370 N 
ATOM      8  H   LIG    1        3.557  -1.496  -0.492  0.00  0.00    +0.420 HD
ENDROOT
BRANCH   1  10
ATOM      9  C   LIG    1       -0.578  -2.112   0.334  0.00  0.00    +0.060 C 
ATOM     10  C   LIG    1        0.743  -1.340   0.328  0.00  0.00    +0.030 C 
ENDBRANCH   1  10
BRANCH   7  11
ATOM     11  C   LIG    1        2.583   0.279  -0.207  0.00  0.00    +0.290 C 
BRANCH  11  12
ATOM     12  C   LIG    1        3.872   1.059  -0.179  0.00  0.00    -0.130 C 
ATOM     13  C   LIG    1        4.366   1.467   0.963  0.00  0.00    -0.030 C 
ATOM     14  C   LIG    1        5.706   2.156   1.002  0.00  0.00    +0.090 C 
ATOM     15  C   LIG    1        3.595   1.248   2.239  0.00  0.00    +0.080 C 
ENDBRANCH  11  12
ENDBRANCH   7  11
TORSDOF 3
ENDMDL
MODEL      888
REMARK  Name = ZINC000606900751
REMARK                            x       y       z     vdW  Elec       q    Type
REMARK                         _______ _______ _______ _____ _____    ______ ____
ROOT
ATOM      1  C   LIG    1        0.581  -0.699   1.186  0.00  0.00    +0.150 C 
ATOM      2  C   LIG    1        0.694  -2.227   1.045  0.00  0.00    +0.060 C 
ATOM      3  C   LIG    1        1.031  -2.924   2.377  0.00  0.00    +0.010 C 
ATOM      4  C   LIG    1        2.081  -2.200   3.179  0.00  0.00    +0.040 C 
ATOM      5  C   LIG    1        1.390  -1.203   4.140  0.00  0.00    +0.060 C 
ATOM      6  C   LIG    1        0.907  -0.028   3.421  0.00  0.00    +0.250 C 
ATOM      7  N   LIG    1       -0.112  -0.336   2.401  0.00  0.00    -0.370 N 
ATOM      8  H   LIG    1       -0.686  -1.105   2.712  0.00  0.00    +0.420 HD
ENDROOT
BRANCH   1  10
ATOM      9  C   LIG    1        0.575  -0.468  -1.302  0.00  0.00    +0.060 C 
ATOM     10  C   LIG    1       -0.185  -0.140  -0.015  0.00  0.00    +0.030 C 
ENDBRANCH   1  10
BRANCH   7  11
ATOM     11  C   LIG    1       -0.951   0.846   2.162  0.00  0.00    +0.250 C 
BRANCH  11  12
ATOM     12  C   LIG    1       -1.752   1.166   3.425  0.00  0.00    +0.030 C 
BRANCH  12  13
ATOM     13  C   LIG    1       -2.626   2.397   3.176  0.00  0.00    -0.010 C 
ATOM     14  C   LIG    1       -1.733   3.618   2.943  0.00  0.00    +0.020 C 
ATOM     15  C   LIG    1       -3.519   2.644   4.394  0.00  0.00    +0.040 C 
ENDBRANCH  12  13
ENDBRANCH  11  12
ENDBRANCH   7  11
TORSDOF 4
ENDMDL
MODEL      889
REMARK  Name = ZINC000606900752
REMARK                            x       y       z     vdW  Elec       q    Type
REMARK                         _______ _______ _______ _____ _____    ______ ____
ROOT
ATOM      1  C   LIG    1        0.729  -0.456   1.227  0.00  0.00    +0.160 C 
ATOM      2  C   LIG    1        0.437  -1.928   1.339  0.00  0.00    +0.050 C 
ATOM      3  C   LIG    1        0.324  -2.287   2.836  0.00  0.00    +0.030 C 
ATOM      4  C   LIG    1        1.630  -2.409   3.472  0.00  0.00    +0.020 C 
ATOM      5  C   LIG    1        2.433  -1.091   3.411  0.00  0.00    +0.050 C 
ATOM      6  C   LIG    1        3.018  -0.959   2.031  0.00  0.00    +0.240 C 
ATOM      7  N   LIG    1        2.173  -0.161   1.117  0.00  0.00    -0.380 N 
ATOM      8  H   LIG    1        2.316   0.817   1.319  0.00  0.00    +0.420 HD
ENDROOT
BRANCH   1  10
ATOM      9  C   LIG    1        0.210   1.611  -0.078  0.00  0.00    +0.020 C 
ATOM     10  C   LIG    1        0.018   0.094  -0.011  0.00  0.00    +0.040 C 
ENDBRANCH   1  10
BRANCH   7  11
ATOM     11  C   LIG    1        2.602  -0.421  -0.264  0.00  0.00    +0.240 C 
BRANCH  11  12
ATOM     12  C   LIG    1        4.051   0.036  -0.443  0.00  0.00    +0.040 C 
BRANCH  12  13
ATOM     13  C   LIG    1        4.497  -0.235  -1.881  0.00  0.00    -0.010 C 
ATOM     14  C   LIG    1        4.513  -1.743  -2.135  0.00  0.00    +0.020 C 
ATOM     15  C   LIG    1        5.901   0.334  -2.095  0.00  0.00    +0.040 C 
ENDBRANCH  12  13
ENDBRANCH  11  12
ENDBRANCH   7  11
TORSDOF 4
ENDMDL
MODEL      890
REMARK  Name = ZINC000607155915
REMARK                            x       y       z     vdW  Elec       q    Type
REMARK                         _______ _______ _______ _____ _____    ______ ____
ROOT
ATOM      1  N   LIG    1       -1.415  -0.613  -0.013  0.00  0.00    -0.380 N 
ATOM      2  H   LIG    1       -1.971  -0.236   0.740  0.00  0.00    +0.420 HD
ENDROOT
BRANCH   1   3
ATOM      3  C   LIG    1       -1.391  -2.079   0.083  0.00  0.00    +0.140 C 
ATOM      4  C   LIG    1       -1.327  -2.600   1.528  0.00  0.00    +0.060 C 
ATOM      5  C   LIG    1       -2.317  -3.694   1.093  0.00  0.00    +0.060 C 
ATOM      6  C   LIG    1       -2.783  -2.725  -0.006  0.00  0.00    +0.050 C 
ENDBRANCH   1   3
BRANCH   1   8
ATOM      7  C   LIG    1        0.524  -0.404   1.468  0.00  0.00    +0.090 C 
ATOM      8  C   LIG    1       -0.045  -0.093   0.082  0.00  0.00    +0.160 C 
ATOM      9  C   LIG    1        0.827  -0.755  -0.987  0.00  0.00    +0.080 C 
ENDBRANCH   1   8
BRANCH   1  10
ATOM     10  C   LIG    1       -2.002  -0.216  -1.300  0.00  0.00    +0.240 C 
BRANCH  10  11
ATOM     11  C   LIG    1       -2.127   1.308  -1.355  0.00  0.00    +0.040 C 
BRANCH  11  12
ATOM     12  C   LIG    1       -2.706   1.723  -2.709  0.00  0.00    -0.060 C 
ATOM     13  C   LIG    1       -1.778   1.247  -3.828  0.00  0.00    +0.030 C 
ATOM     14  C   LIG    1       -2.831   3.247  -2.764  0.00  0.00    +0.040 C 
ATOM     15  C   LIG    1       -4.087   1.091  -2.889  0.00  0.00    +0.030 C 
ENDBRANCH  11  12
ENDBRANCH  10  11
ENDBRANCH   1  10
TORSDOF 5
ENDMDL
MODEL      891
REMARK  Name = ZINC000607156927
REMARK                            x       y       z     vdW  Elec       q    Type
REMARK                         _______ _______ _______ _____ _____    ______ ____
ROOT
ATOM      1  N   LIG    1       -1.692  -2.547   0.195  0.00  0.00    -0.370 N 
ATOM      2  C   LIG    1       -1.132  -3.037   1.473  0.00  0.00    +0.250 C 
ATOM      3  C   LIG    1       -1.827  -4.303   2.005  0.00  0.00    +0.060 C 
ATOM      4  C   LIG    1       -2.108  -5.327   0.937  0.00  0.00    +0.020 C 
ATOM      5  C   LIG    1       -3.526  -5.077   0.366  0.00  0.00    +0.030 C 
ATOM      6  C   LIG    1       -3.535  -3.923  -0.524  0.00  0.00    +0.050 C 
ATOM      7  C   LIG    1       -3.133  -2.615   0.179  0.00  0.00    +0.160 C 
ATOM      8  H   LIG    1       -1.328  -3.110  -0.559  0.00  0.00    +0.420 HD
ENDROOT
BRANCH   1   9
ATOM      9  C   LIG    1       -1.276  -1.153  -0.006  0.00  0.00    +0.250 C 
BRANCH   9  11
ATOM     10  C   LIG    1        0.660   0.349  -0.493  0.00  0.00    +0.060 C 
ATOM     11  C   LIG    1        0.227  -1.104  -0.283  0.00  0.00    +0.010 C 
ENDBRANCH   9  11
ENDBRANCH   1   9
BRANCH   7  12
ATOM     12  C   LIG    1       -3.699  -1.419  -0.588  0.00  0.00    +0.060 C 
BRANCH  12  13
ATOM     13  C   LIG    1       -3.656  -0.175   0.301  0.00  0.00    -0.040 C 
ATOM     14  C   LIG    1       -4.115  -0.542   1.714  0.00  0.00    +0.030 C 
ATOM     15  C   LIG    1       -4.584   0.896  -0.274  0.00  0.00    +0.040 C 
ENDBRANCH  12  13
ENDBRANCH   7  12
TORSDOF 4
ENDMDL
MODEL      892
REMARK  Name = ZINC000680636087
REMARK                            x       y       z     vdW  Elec       q    Type
REMARK                         _______ _______ _______ _____ _____    ______ ____
ROOT
ATOM      1  N   LIG    1       -1.371  -0.502   0.137  0.00  0.00    -0.390 N 
ATOM      2  H   LIG    1       -1.787   0.013   0.898  0.00  0.00    +0.420 HD
ENDROOT
BRANCH   1   4
ATOM      3  C   LIG    1        0.088   1.436  -0.200  0.00  0.00    +0.080 C 
ATOM      4  C   LIG    1        0.027  -0.084  -0.032  0.00  0.00    +0.240 C 
ENDBRANCH   1   4
BRANCH   1   5
ATOM      5  C   LIG    1       -1.420  -1.940   0.434  0.00  0.00    +0.240 C 
BRANCH   5   6
ATOM      6  C   LIG    1       -0.752  -2.204   1.786  0.00  0.00    +0.040 C 
BRANCH   6   7
ATOM      7  C   LIG    1       -0.803  -3.701   2.096  0.00  0.00    -0.060 C 
ATOM      8  C   LIG    1       -2.260  -4.162   2.148  0.00  0.00    +0.030 C 
ATOM      9  C   LIG    1       -0.135  -3.965   3.447  0.00  0.00    +0.040 C 
ATOM     10  C   LIG    1       -0.063  -4.473   1.002  0.00  0.00    +0.030 C 
ENDBRANCH   6   7
ENDBRANCH   5   6
ENDBRANCH   1   5
BRANCH   1  11
ATOM     11  C   LIG    1       -2.116  -0.233  -1.101  0.00  0.00    +0.250 C 
BRANCH  11  12
ATOM     12  C   LIG    1       -3.600  -0.533  -0.879  0.00  0.00    +0.070 C 
BRANCH  12  13
ATOM     13  C   LIG    1       -4.394  -0.125  -2.121  0.00  0.00    -0.060 C 
ATOM     14  C   LIG    1       -5.115  -1.231  -2.894  0.00  0.00    +0.030 C 
ATOM     15  C   LIG    1       -5.918  -0.237  -2.053  0.00  0.00    +0.030 C 
ENDBRANCH  12  13
ENDBRANCH  11  12
ENDBRANCH   1  11
TORSDOF 7
ENDMDL
MODEL      893
REMARK  Name = ZINC000607156928
REMARK                            x       y       z     vdW  Elec       q    Type
REMARK                         _______ _______ _______ _____ _____    ______ ____
ROOT
ATOM      1  N   LIG    1       -1.428  -1.879  -0.200  0.00  0.00    -0.380 N 
ATOM      2  C   LIG    1       -0.824  -2.500   0.954  0.00  0.00    +0.240 C 
ATOM      3  C   LIG    1        0.051  -3.663   0.460  0.00  0.00    +0.050 C 
ATOM      4  C   LIG    1       -0.701  -4.891   0.236  0.00  0.00    +0.030 C 
ATOM      5  C   LIG    1       -1.784  -4.689  -0.853  0.00  0.00    +0.020 C 
ATOM      6  C   LIG    1       -2.928  -3.909  -0.263  0.00  0.00    +0.060 C 
ATOM      7  C   LIG    1       -2.795  -2.387  -0.446  0.00  0.00    +0.150 C 
ATOM      8  H   LIG    1       -0.857  -2.067  -1.011  0.00  0.00    +0.420 HD
ENDROOT
BRANCH   1   9
ATOM      9  C   LIG    1       -1.489  -0.427   0.015  0.00  0.00    +0.240 C 
BRANCH   9  11
ATOM     10  C   LIG    1       -0.131   1.663   0.179  0.00  0.00    +0.060 C 
ATOM     11  C   LIG    1       -0.069   0.137   0.091  0.00  0.00    +0.020 C 
ENDBRANCH   9  11
ENDBRANCH   1   9
BRANCH   7  12
ATOM     12  C   LIG    1       -3.756  -1.691   0.519  0.00  0.00    +0.040 C 
BRANCH  12  13
ATOM     13  C   LIG    1       -5.193  -2.103   0.193  0.00  0.00    -0.010 C 
ATOM     14  C   LIG    1       -5.574  -1.572  -1.190  0.00  0.00    +0.020 C 
ATOM     15  C   LIG    1       -6.141  -1.520   1.243  0.00  0.00    +0.040 C 
ENDBRANCH  12  13
ENDBRANCH   7  12
TORSDOF 4
ENDMDL
MODEL      894
REMARK  Name = ZINC000607727230
REMARK                            x       y       z     vdW  Elec       q    Type
REMARK                         _______ _______ _______ _____ _____    ______ ____
ROOT
ATOM      1  N   LIG    1       -2.794  -2.566  -0.111  0.00  0.00    -0.390 N 
ATOM      2  C   LIG    1       -3.504  -2.079  -1.301  0.00  0.00    +0.300 C 
ATOM      3  H   LIG    1       -3.266  -2.241   0.719  0.00  0.00    +0.420 HD
ENDROOT
BRANCH   1   4
ATOM      4  C   LIG    1       -1.416  -2.058  -0.121  0.00  0.00    +0.250 C 
BRANCH   4   5
ATOM      5  C   LIG    1       -1.433  -0.534   0.013  0.00  0.00    +0.030 C 
BRANCH   5   7
ATOM      6  C   LIG    1       -0.019   1.526   0.010  0.00  0.00    +0.040 C 
ATOM      7  C   LIG    1        0.002  -0.004   0.002  0.00  0.00    -0.010 C 
ATOM      8  C   LIG    1        0.742  -0.511   1.242  0.00  0.00    +0.020 C 
ENDBRANCH   5   7
ENDBRANCH   4   5
ENDBRANCH   1   4
BRANCH   1   9
ATOM      9  C   LIG    1       -2.774  -4.035  -0.119  0.00  0.00    +0.250 C 
BRANCH   9  10
ATOM     10  C   LIG    1       -4.203  -4.565   0.018  0.00  0.00    +0.040 C 
BRANCH  10  11
ATOM     11  C   LIG    1       -4.182  -6.095   0.009  0.00  0.00    +0.000 C 
ATOM     12  C   LIG    1       -3.554  -6.636   1.318  0.00  0.00    +0.010 C 
ATOM     13  C   LIG    1       -4.147  -8.063   1.417  0.00  0.00    +0.010 C 
ATOM     14  C   LIG    1       -5.597  -7.906   0.915  0.00  0.00    +0.010 C 
ATOM     15  C   LIG    1       -5.619  -6.654   0.020  0.00  0.00    +0.020 C 
ENDBRANCH  10  11
ENDBRANCH   9  10
ENDBRANCH   1   9
TORSDOF 6
ENDMDL
MODEL      895
REMARK  Name = ZINC000607726676
REMARK                            x       y       z     vdW  Elec       q    Type
REMARK                         _______ _______ _______ _____ _____    ______ ____
ROOT
ATOM      1  N   LIG    1       -0.726  -2.462   1.110  0.00  0.00    -0.380 N 
ATOM      2  C   LIG    1       -0.512  -3.915   1.079  0.00  0.00    +0.320 C 
ATOM      3  H   LIG    1       -1.298  -2.223   1.905  0.00  0.00    +0.420 HD
ENDROOT
BRANCH   1   4
ATOM      4  C   LIG    1       -1.401  -2.040  -0.124  0.00  0.00    +0.160 C 
ATOM      5  C   LIG    1       -0.597  -2.519  -1.335  0.00  0.00    +0.080 C 
BRANCH   4   6
ATOM      6  C   LIG    1       -2.804  -2.647  -0.171  0.00  0.00    +0.050 C 
BRANCH   6   8
ATOM      7  C   LIG    1       -5.086  -2.579   0.846  0.00  0.00    +0.030 C 
ATOM      8  C   LIG    1       -3.648  -2.070   0.968  0.00  0.00    -0.000 C 
ENDBRANCH   6   8
ENDBRANCH   4   6
ENDBRANCH   1   4
BRANCH   1   9
ATOM      9  C   LIG    1        0.571  -1.779   1.217  0.00  0.00    +0.250 C 
BRANCH   9  10
ATOM     10  C   LIG    1        1.206  -2.102   2.571  0.00  0.00    +0.040 C 
BRANCH  10  11
ATOM     11  C   LIG    1        2.557  -1.391   2.683  0.00  0.00    +0.000 C 
ATOM     12  C   LIG    1        2.354   0.139   2.823  0.00  0.00    +0.010 C 
ATOM     13  C   LIG    1        3.664   0.595   3.512  0.00  0.00    +0.010 C 
ATOM     14  C   LIG    1        3.979  -0.535   4.513  0.00  0.00    +0.010 C 
ATOM     15  C   LIG    1        3.275  -1.798   3.986  0.00  0.00    +0.020 C 
ENDBRANCH  10  11
ENDBRANCH   9  10
ENDBRANCH   1   9
TORSDOF 6
ENDMDL
MODEL      896
REMARK  Name = ZINC000607726675
REMARK                            x       y       z     vdW  Elec       q    Type
REMARK                         _______ _______ _______ _____ _____    ______ ____
ROOT
ATOM      1  N   LIG    1       -0.923  -2.634  -1.380  0.00  0.00    -0.380 N 
ATOM      2  C   LIG    1        0.508  -2.304  -1.433  0.00  0.00    +0.310 C 
ATOM      3  H   LIG    1       -1.361  -2.367  -2.249  0.00  0.00    +0.420 HD
ENDROOT
BRANCH   1   4
ATOM      4  C   LIG    1       -1.552  -1.907  -0.270  0.00  0.00    +0.160 C 
ATOM      5  C   LIG    1       -0.964  -2.392   1.056  0.00  0.00    +0.080 C 
BRANCH   4   6
ATOM      6  C   LIG    1       -3.061  -2.162  -0.283  0.00  0.00    +0.050 C 
BRANCH   6   8
ATOM      7  C   LIG    1       -5.173  -1.841  -1.578  0.00  0.00    +0.030 C 
ATOM      8  C   LIG    1       -3.663  -1.593  -1.569  0.00  0.00    -0.010 C 
ENDBRANCH   6   8
ENDBRANCH   4   6
ENDBRANCH   1   4
BRANCH   1   9
ATOM      9  C   LIG    1       -1.085  -4.079  -1.174  0.00  0.00    +0.240 C 
BRANCH   9  10
ATOM     10  C   LIG    1       -0.526  -4.833  -2.382  0.00  0.00    +0.040 C 
BRANCH  10  11
ATOM     11  C   LIG    1       -0.695  -6.338  -2.167  0.00  0.00    -0.010 C 
ATOM     12  C   LIG    1       -2.190  -6.734  -2.255  0.00  0.00    +0.010 C 
ATOM     13  C   LIG    1       -2.125  -8.236  -2.626  0.00  0.00    +0.010 C 
ATOM     14  C   LIG    1       -0.936  -8.333  -3.605  0.00  0.00    +0.010 C 
ATOM     15  C   LIG    1       -0.027  -7.126  -3.313  0.00  0.00    +0.020 C 
ENDBRANCH  10  11
ENDBRANCH   9  10
ENDBRANCH   1   9
TORSDOF 6
ENDMDL
MODEL      897
REMARK  Name = ZINC000607729083
REMARK                            x       y       z     vdW  Elec       q    Type
REMARK                         _______ _______ _______ _____ _____    ______ ____
ROOT
ATOM      1  C   LIG    1       -0.498   1.546   0.819  0.00  0.00    +0.300 C 
ATOM      2  N   LIG    1       -0.359   0.122   0.486  0.00  0.00    -0.390 N 
ATOM      3  H   LIG    1        0.181   0.026  -0.361  0.00  0.00    +0.420 HD
ENDROOT
BRANCH   2   4
ATOM      4  C   LIG    1       -1.690  -0.467   0.287  0.00  0.00    +0.260 C 
BRANCH   4   5
ATOM      5  C   LIG    1       -2.147  -0.221  -1.152  0.00  0.00    -0.090 C 
ATOM      6  C   LIG    1       -2.079   1.276  -1.461  0.00  0.00    +0.040 C 
ATOM      7  C   LIG    1       -3.586  -0.712  -1.321  0.00  0.00    +0.070 C 
ATOM      8  C   LIG    1       -1.232  -0.983  -2.114  0.00  0.00    +0.040 C 
ENDBRANCH   4   5
ENDBRANCH   2   4
BRANCH   2   9
ATOM      9  C   LIG    1        0.325  -0.573   1.584  0.00  0.00    +0.250 C 
BRANCH   9  10
ATOM     10  C   LIG    1        1.756  -0.045   1.709  0.00  0.00    +0.040 C 
BRANCH  10  11
ATOM     11  C   LIG    1        2.468  -0.770   2.853  0.00  0.00    +0.000 C 
ATOM     12  C   LIG    1        2.745  -2.245   2.472  0.00  0.00    +0.010 C 
ATOM     13  C   LIG    1        3.933  -2.619   3.392  0.00  0.00    +0.010 C 
ATOM     14  C   LIG    1        4.802  -1.345   3.425  0.00  0.00    +0.010 C 
ATOM     15  C   LIG    1        3.871  -0.169   3.082  0.00  0.00    +0.020 C 
ENDBRANCH  10  11
ENDBRANCH   9  10
ENDBRANCH   2   9
TORSDOF 5
ENDMDL
MODEL      898
REMARK  Name = ZINC000607732108
REMARK                            x       y       z     vdW  Elec       q    Type
REMARK                         _______ _______ _______ _____ _____    ______ ____
ROOT
ATOM      1  N   LIG    1        0.738  -1.966  -1.265  0.00  0.00    -0.380 N 
ATOM      2  C   LIG    1       -0.640  -2.475  -1.254  0.00  0.00    +0.320 C 
ATOM      3  H   LIG    1        1.226  -2.301  -0.447  0.00  0.00    +0.420 HD
ENDROOT
BRANCH   1   4
ATOM      4  C   LIG    1        0.718  -0.497  -1.257  0.00  0.00    +0.050 C 
ATOM      5  C   LIG    1        2.154   0.032  -1.268  0.00  0.00    +0.090 C 
ATOM      6  C   LIG    1       -0.022   0.009  -2.496  0.00  0.00    +0.090 C 
BRANCH   4   8
ATOM      7  C   LIG    1       -0.019   1.526   0.010  0.00  0.00    +0.060 C 
ATOM      8  C   LIG    1        0.002  -0.004   0.002  0.00  0.00    +0.040 C 
ENDBRANCH   4   8
ENDBRANCH   1   4
BRANCH   1   9
ATOM      9  C   LIG    1        1.426  -2.440  -2.474  0.00  0.00    +0.240 C 
BRANCH   9  10
ATOM     10  C   LIG    1        1.557  -3.964  -2.422  0.00  0.00    +0.040 C 
BRANCH  10  11
ATOM     11  C   LIG    1        2.273  -4.457  -3.680  0.00  0.00    -0.010 C 
ATOM     12  C   LIG    1        3.765  -4.044  -3.652  0.00  0.00    +0.010 C 
ATOM     13  C   LIG    1        4.425  -5.082  -4.594  0.00  0.00    +0.010 C 
ATOM     14  C   LIG    1        3.676  -6.396  -4.294  0.00  0.00    +0.010 C 
ATOM     15  C   LIG    1        2.307  -5.999  -3.713  0.00  0.00    +0.020 C 
ENDBRANCH  10  11
ENDBRANCH   9  10
ENDBRANCH   1   9
TORSDOF 5
ENDMDL
MODEL      899
REMARK  Name = ZINC000607732388
REMARK                            x       y       z     vdW  Elec       q    Type
REMARK                         _______ _______ _______ _____ _____    ______ ____
ROOT
ATOM      1  N   LIG    1       -1.371  -0.502   0.137  0.00  0.00    -0.390 N 
ATOM      2  H   LIG    1       -1.787   0.013   0.898  0.00  0.00    +0.420 HD
ENDROOT
BRANCH   1   4
ATOM      3  C   LIG    1        0.087   1.436  -0.202  0.00  0.00    +0.080 C 
ATOM      4  C   LIG    1        0.026  -0.083  -0.032  0.00  0.00    +0.240 C 
ENDBRANCH   1   4
BRANCH   1   5
ATOM      5  C   LIG    1       -1.419  -1.940   0.434  0.00  0.00    +0.250 C 
BRANCH   5   6
ATOM      6  C   LIG    1       -0.752  -2.203   1.786  0.00  0.00    -0.030 C 
ATOM      7  C   LIG    1       -0.691  -3.711   2.039  0.00  0.00    +0.070 C 
ATOM      8  C   LIG    1       -1.565  -1.532   2.895  0.00  0.00    +0.030 C 
ENDBRANCH   5   6
ENDBRANCH   1   5
BRANCH   1   9
ATOM      9  C   LIG    1       -2.116  -0.233  -1.101  0.00  0.00    +0.240 C 
BRANCH   9  10
ATOM     10  C   LIG    1       -3.600  -0.533  -0.879  0.00  0.00    +0.040 C 
BRANCH  10  11
ATOM     11  C   LIG    1       -4.394  -0.125  -2.121  0.00  0.00    +0.000 C 
ATOM     12  C   LIG    1       -4.086  -1.081  -3.300  0.00  0.00    +0.010 C 
ATOM     13  C   LIG    1       -5.341  -0.932  -4.197  0.00  0.00    +0.010 C 
ATOM     14  C   LIG    1       -6.509  -0.814  -3.196  0.00  0.00    +0.010 C 
ATOM     15  C   LIG    1       -5.907  -0.301  -1.876  0.00  0.00    +0.020 C 
ENDBRANCH  10  11
ENDBRANCH   9  10
ENDBRANCH   1   9
TORSDOF 6
ENDMDL
MODEL      900
REMARK  Name = ZINC000607731609
REMARK                            x       y       z     vdW  Elec       q    Type
REMARK                         _______ _______ _______ _____ _____    ______ ____
ROOT
ATOM      1  N   LIG    1        1.308  -2.481  -2.512  0.00  0.00    -0.390 N 
ATOM      2  C   LIG    1        2.757  -2.293  -2.360  0.00  0.00    +0.310 C 
ATOM      3  H   LIG    1        0.987  -1.976  -3.324  0.00  0.00    +0.420 HD
ENDROOT
BRANCH   1   4
ATOM      4  C   LIG    1        0.622  -1.974  -1.316  0.00  0.00    +0.250 C 
BRANCH   4   5
ATOM      5  C   LIG    1        0.810  -0.458  -1.224  0.00  0.00    -0.030 C 
ATOM      6  C   LIG    1        0.210   0.051   0.088  0.00  0.00    +0.070 C 
BRANCH   5   8
ATOM      7  C   LIG    1        0.396   1.718  -2.381  0.00  0.00    +0.040 C 
ATOM      8  C   LIG    1        0.104   0.216  -2.403  0.00  0.00    +0.000 C 
ENDBRANCH   5   8
ENDBRANCH   4   5
ENDBRANCH   1   4
BRANCH   1   9
ATOM      9  C   LIG    1        1.014  -3.911  -2.676  0.00  0.00    +0.250 C 
BRANCH   9  10
ATOM     10  C   LIG    1        1.626  -4.410  -3.986  0.00  0.00    +0.040 C 
BRANCH  10  11
ATOM     11  C   LIG    1        1.320  -5.899  -4.157  0.00  0.00    +0.000 C 
ATOM     12  C   LIG    1       -0.186  -6.113  -4.449  0.00  0.00    +0.010 C 
ATOM     13  C   LIG    1       -0.203  -7.484  -5.170  0.00  0.00    +0.010 C 
ATOM     14  C   LIG    1        1.062  -7.464  -6.051  0.00  0.00    +0.010 C 
ATOM     15  C   LIG    1        2.031  -6.457  -5.408  0.00  0.00    +0.020 C 
ENDBRANCH  10  11
ENDBRANCH   9  10
ENDBRANCH   1   9
TORSDOF 6
ENDMDL
MODEL      901
REMARK  Name = ZINC000607731610
REMARK                            x       y       z     vdW  Elec       q    Type
REMARK                         _______ _______ _______ _____ _____    ______ ____
ROOT
ATOM      1  N   LIG    1        1.641  -2.484  -2.353  0.00  0.00    -0.390 N 
ATOM      2  C   LIG    1        3.013  -1.972  -2.240  0.00  0.00    +0.310 C 
ATOM      3  H   LIG    1        1.224  -2.145  -3.207  0.00  0.00    +0.420 HD
ENDROOT
BRANCH   1   4
ATOM      4  C   LIG    1        0.849  -2.021  -1.205  0.00  0.00    +0.250 C 
BRANCH   4   5
ATOM      5  C   LIG    1        0.718  -0.497  -1.257  0.00  0.00    -0.030 C 
ATOM      6  C   LIG    1       -0.089  -0.097  -2.493  0.00  0.00    +0.040 C 
BRANCH   5   8
ATOM      7  C   LIG    1       -0.019   1.526   0.010  0.00  0.00    +0.030 C 
ATOM      8  C   LIG    1        0.002  -0.004   0.002  0.00  0.00    +0.020 C 
ENDBRANCH   5   8
ENDBRANCH   4   5
ENDBRANCH   1   4
BRANCH   1   9
ATOM      9  C   LIG    1        1.666  -3.952  -2.370  0.00  0.00    +0.250 C 
BRANCH   9  10
ATOM     10  C   LIG    1        2.384  -4.435  -3.632  0.00  0.00    +0.040 C 
BRANCH  10  11
ATOM     11  C   LIG    1        2.410  -5.965  -3.650  0.00  0.00    +0.000 C 
ATOM     12  C   LIG    1        0.989  -6.529  -3.900  0.00  0.00    +0.010 C 
ATOM     13  C   LIG    1        1.277  -7.936  -4.479  0.00  0.00    +0.010 C 
ATOM     14  C   LIG    1        2.516  -7.730  -5.375  0.00  0.00    +0.010 C 
ATOM     15  C   LIG    1        3.236  -6.477  -4.848  0.00  0.00    +0.020 C 
ENDBRANCH  10  11
ENDBRANCH   9  10
ENDBRANCH   1   9
TORSDOF 6
ENDMDL
MODEL      902
REMARK  Name = ZINC000149177425
REMARK                            x       y       z     vdW  Elec       q    Type
REMARK                         _______ _______ _______ _____ _____    ______ ____
ROOT
ATOM      1  N   LIG    1        0.416  -3.007  -1.095  0.00  0.00    -0.380 N 
ATOM      2  H   LIG    1       -0.418  -3.407  -0.690  0.00  0.00    +0.420 HD
ENDROOT
BRANCH   1   3
ATOM      3  C   LIG    1        1.264  -2.459  -0.029  0.00  0.00    +0.160 C 
ATOM      4  C   LIG    1        0.427  -1.550   0.873  0.00  0.00    +0.090 C 
ATOM      5  C   LIG    1        2.405  -1.651  -0.650  0.00  0.00    +0.090 C 
ENDBRANCH   1   3
BRANCH   1   6
ATOM      6  C   LIG    1        0.042  -1.933  -2.024  0.00  0.00    +0.240 C 
BRANCH   6   8
ATOM      7  C   LIG    1       -1.618  -0.115  -2.454  0.00  0.00    +0.060 C 
ATOM      8  C   LIG    1       -1.077  -1.091  -1.407  0.00  0.00    +0.020 C 
ENDBRANCH   6   8
ENDBRANCH   1   6
BRANCH   1   9
ATOM      9  C   LIG    1        1.154  -4.049  -1.822  0.00  0.00    +0.240 C 
BRANCH   9  10
ATOM     10  C   LIG    1        1.464  -5.210  -0.875  0.00  0.00    +0.030 C 
BRANCH  10  11
ATOM     11  C   LIG    1        2.279  -6.270  -1.619  0.00  0.00    +0.030 C 
BRANCH  11  12
ATOM     12  C   LIG    1        2.589  -7.431  -0.671  0.00  0.00    -0.030 C 
ATOM     13  C   LIG    1        3.507  -8.432  -1.376  0.00  0.00    +0.030 C 
ATOM     14  C   LIG    1        1.286  -8.127  -0.273  0.00  0.00    +0.020 C 
ENDBRANCH  11  12
ENDBRANCH  10  11
ENDBRANCH   9  10
ENDBRANCH   1   9
TORSDOF 7
ENDMDL
MODEL      903
REMARK  Name = ZINC000607740288
REMARK                            x       y       z     vdW  Elec       q    Type
REMARK                         _______ _______ _______ _____ _____    ______ ____
ROOT
ATOM      1  C   LIG    1       -0.019   1.526   0.010  0.00  0.00    +0.070 C 
ATOM      2  C   LIG    1        0.002  -0.004   0.002  0.00  0.00    -0.020 C 
ATOM      3  C   LIG    1        0.721  -0.499  -1.257  0.00  0.00    +0.030 C 
ATOM      4  C   LIG    1        0.805  -2.027  -1.217  0.00  0.00    +0.060 C 
ATOM      5  C   LIG    1        1.518  -2.460   0.066  0.00  0.00    +0.240 C 
ATOM      6  N   LIG    1        0.768  -1.979   1.233  0.00  0.00    -0.380 N 
ATOM      7  H   LIG    1       -0.177  -2.330   1.192  0.00  0.00    +0.420 HD
ATOM      8  C   LIG    1        0.744  -0.512   1.240  0.00  0.00    +0.170 C 
ATOM      9  C   LIG    1        2.178   0.022   1.227  0.00  0.00    +0.080 C 
ENDROOT
BRANCH   6  10
ATOM     10  C   LIG    1        1.415  -2.462   2.461  0.00  0.00    +0.240 C 
BRANCH  10  11
ATOM     11  C   LIG    1        1.322  -3.988   2.520  0.00  0.00    +0.040 C 
BRANCH  11  12
ATOM     12  C   LIG    1        1.995  -4.490   3.799  0.00  0.00    -0.060 C 
ATOM     13  C   LIG    1        3.466  -4.067   3.801  0.00  0.00    +0.030 C 
ATOM     14  C   LIG    1        1.903  -6.016   3.859  0.00  0.00    +0.040 C 
ATOM     15  C   LIG    1        1.290  -3.889   5.017  0.00  0.00    +0.030 C 
ENDBRANCH  11  12
ENDBRANCH  10  11
ENDBRANCH   6  10
TORSDOF 3
ENDMDL
MODEL      904
REMARK  Name = ZINC000607740286
REMARK                            x       y       z     vdW  Elec       q    Type
REMARK                         _______ _______ _______ _____ _____    ______ ____
ROOT
ATOM      1  C   LIG    1       -0.019   1.526   0.010  0.00  0.00    +0.040 C 
ATOM      2  C   LIG    1        0.002  -0.004   0.002  0.00  0.00    +0.010 C 
ATOM      3  C   LIG    1       -1.434  -0.535   0.015  0.00  0.00    +0.040 C 
ATOM      4  C   LIG    1       -2.117  -0.099   1.315  0.00  0.00    +0.050 C 
ATOM      5  C   LIG    1       -1.302  -0.604   2.507  0.00  0.00    +0.240 C 
ATOM      6  N   LIG    1        0.052  -0.040   2.452  0.00  0.00    -0.380 N 
ATOM      7  H   LIG    1       -0.004   0.967   2.434  0.00  0.00    +0.420 HD
ATOM      8  C   LIG    1        0.740  -0.512   1.242  0.00  0.00    +0.170 C 
ATOM      9  C   LIG    1        0.760  -2.042   1.232  0.00  0.00    +0.070 C 
ENDROOT
BRANCH   6  10
ATOM     10  C   LIG    1        0.807  -0.466   3.638  0.00  0.00    +0.240 C 
BRANCH  10  11
ATOM     11  C   LIG    1        0.169   0.136   4.891  0.00  0.00    +0.040 C 
BRANCH  11  12
ATOM     12  C   LIG    1        0.955  -0.308   6.127  0.00  0.00    -0.060 C 
ATOM     13  C   LIG    1        0.932  -1.834   6.225  0.00  0.00    +0.030 C 
ATOM     14  C   LIG    1        0.317   0.294   7.380  0.00  0.00    +0.040 C 
ATOM     15  C   LIG    1        2.402   0.174   6.010  0.00  0.00    +0.030 C 
ENDBRANCH  11  12
ENDBRANCH  10  11
ENDBRANCH   6  10
TORSDOF 3
ENDMDL
MODEL      905
REMARK  Name = ZINC000607740289
REMARK                            x       y       z     vdW  Elec       q    Type
REMARK                         _______ _______ _______ _____ _____    ______ ____
ROOT
ATOM      1  C   LIG    1       -0.019   1.526   0.010  0.00  0.00    +0.040 C 
ATOM      2  C   LIG    1        0.002  -0.004   0.002  0.00  0.00    +0.010 C 
ATOM      3  C   LIG    1       -1.434  -0.535   0.015  0.00  0.00    +0.040 C 
ATOM      4  C   LIG    1       -2.117  -0.099   1.315  0.00  0.00    +0.050 C 
ATOM      5  C   LIG    1       -1.302  -0.604   2.507  0.00  0.00    +0.250 C 
ATOM      6  N   LIG    1        0.052  -0.040   2.452  0.00  0.00    -0.380 N 
ATOM      7  H   LIG    1       -0.004   0.967   2.434  0.00  0.00    +0.420 HD
ATOM      8  C   LIG    1        0.740  -0.512   1.242  0.00  0.00    +0.170 C 
ATOM      9  C   LIG    1        2.176   0.017   1.234  0.00  0.00    +0.080 C 
ENDROOT
BRANCH   6  10
ATOM     10  C   LIG    1        0.807  -0.466   3.638  0.00  0.00    +0.250 C 
BRANCH  10  11
ATOM     11  C   LIG    1        0.169   0.136   4.891  0.00  0.00    +0.040 C 
BRANCH  11  12
ATOM     12  C   LIG    1        0.955  -0.308   6.127  0.00  0.00    -0.060 C 
ATOM     13  C   LIG    1        0.932  -1.834   6.225  0.00  0.00    +0.030 C 
ATOM     14  C   LIG    1        0.317   0.294   7.380  0.00  0.00    +0.040 C 
ATOM     15  C   LIG    1        2.402   0.174   6.010  0.00  0.00    +0.030 C 
ENDBRANCH  11  12
ENDBRANCH  10  11
ENDBRANCH   6  10
TORSDOF 3
ENDMDL
MODEL      906
REMARK  Name = ZINC000607740287
REMARK                            x       y       z     vdW  Elec       q    Type
REMARK                         _______ _______ _______ _____ _____    ______ ____
ROOT
ATOM      1  C   LIG    1       -0.019   1.526   0.010  0.00  0.00    +0.080 C 
ATOM      2  C   LIG    1        0.002  -0.004   0.002  0.00  0.00    +0.160 C 
ATOM      3  C   LIG    1       -1.434  -0.533   0.011  0.00  0.00    -0.020 C 
ATOM      4  C   LIG    1       -1.408  -2.064   0.003  0.00  0.00    +0.040 C 
ATOM      5  C   LIG    1       -0.600  -2.558   1.206  0.00  0.00    +0.050 C 
ATOM      6  C   LIG    1        0.805  -1.954   1.152  0.00  0.00    +0.250 C 
ATOM      7  C   LIG    1       -2.173  -0.027  -1.229  0.00  0.00    +0.070 C 
ATOM      8  N   LIG    1        0.713  -0.490   1.191  0.00  0.00    -0.380 N 
ATOM      9  H   LIG    1        0.214  -0.207   2.020  0.00  0.00    +0.420 HD
ENDROOT
BRANCH   8  10
ATOM     10  C   LIG    1        2.066   0.084   1.216  0.00  0.00    +0.250 C 
BRANCH  10  11
ATOM     11  C   LIG    1        2.764  -0.313   2.518  0.00  0.00    +0.040 C 
BRANCH  11  12
ATOM     12  C   LIG    1        4.172   0.285   2.544  0.00  0.00    -0.060 C 
ATOM     13  C   LIG    1        4.973  -0.246   1.354  0.00  0.00    +0.030 C 
ATOM     14  C   LIG    1        4.870  -0.112   3.847  0.00  0.00    +0.040 C 
ATOM     15  C   LIG    1        4.081   1.810   2.459  0.00  0.00    +0.030 C 
ENDBRANCH  11  12
ENDBRANCH  10  11
ENDBRANCH   8  10
TORSDOF 3
ENDMDL
MODEL      907
REMARK  Name = ZINC001170078406
REMARK                            x       y       z     vdW  Elec       q    Type
REMARK                         _______ _______ _______ _____ _____    ______ ____
ROOT
ATOM      1  C   LIG    1        3.257  -0.017   2.913  0.00  0.00    +0.170 C 
ATOM      2  C   LIG    1        3.199  -1.540   3.047  0.00  0.00    +0.090 C 
ENDROOT
BRANCH   1   3
ATOM      3  N   LIG    1        2.471   0.403   1.745  0.00  0.00    -0.380 N 
ATOM      4  C   LIG    1        2.019   1.788   1.931  0.00  0.00    +0.300 C 
ATOM      5  H   LIG    1        3.043   0.345   0.916  0.00  0.00    +0.420 HD
BRANCH   3   6
ATOM      6  C   LIG    1        1.305  -0.477   1.598  0.00  0.00    +0.160 C 
ATOM      7  C   LIG    1        1.650  -1.628   0.650  0.00  0.00    +0.080 C 
BRANCH   6   9
ATOM      8  C   LIG    1       -1.047  -0.619   0.765  0.00  0.00    +0.050 C 
ATOM      9  C   LIG    1        0.132   0.321   1.024  0.00  0.00    +0.020 C 
ENDBRANCH   6   9
ENDBRANCH   3   6
ENDBRANCH   1   3
BRANCH   1  10
ATOM     10  C   LIG    1        4.711   0.424   2.735  0.00  0.00    +0.060 C 
BRANCH  10  11
ATOM     11  C   LIG    1        4.763   1.940   2.527  0.00  0.00    +0.000 C 
BRANCH  11  12
ATOM     12  C   LIG    1        6.218   2.382   2.361  0.00  0.00    +0.020 C 
BRANCH  12  13
ATOM     13  C   LIG    1        6.270   3.897   2.153  0.00  0.00    -0.030 C 
ATOM     14  C   LIG    1        7.710   4.323   1.863  0.00  0.00    +0.030 C 
ATOM     15  C   LIG    1        5.774   4.602   3.418  0.00  0.00    +0.020 C 
ENDBRANCH  12  13
ENDBRANCH  11  12
ENDBRANCH  10  11
ENDBRANCH   1  10
TORSDOF 7
ENDMDL
MODEL      908
REMARK  Name = ZINC001170075008
REMARK                            x       y       z     vdW  Elec       q    Type
REMARK                         _______ _______ _______ _____ _____    ______ ____
ROOT
ATOM      1  C   LIG    1       -1.369  -4.114   0.199  0.00  0.00    +0.160 C 
ATOM      2  C   LIG    1       -2.485  -5.160   0.237  0.00  0.00    +0.090 C 
ENDROOT
BRANCH   1   3
ATOM      3  N   LIG    1       -1.227  -3.600  -1.170  0.00  0.00    -0.380 N 
ATOM      4  H   LIG    1       -2.087  -3.748  -1.676  0.00  0.00    +0.420 HD
BRANCH   3   5
ATOM      5  C   LIG    1       -0.133  -4.308  -1.848  0.00  0.00    +0.160 C 
ATOM      6  C   LIG    1       -0.000  -3.791  -3.281  0.00  0.00    +0.080 C 
ATOM      7  C   LIG    1       -0.435  -5.808  -1.873  0.00  0.00    +0.070 C 
ENDBRANCH   3   5
BRANCH   3   9
ATOM      8  C   LIG    1       -1.374  -1.506  -2.433  0.00  0.00    +0.070 C 
ATOM      9  C   LIG    1       -0.926  -2.163  -1.125  0.00  0.00    +0.240 C 
ENDBRANCH   3   9
ENDBRANCH   1   3
BRANCH   1  10
ATOM     10  C   LIG    1       -1.718  -2.961   1.142  0.00  0.00    +0.050 C 
BRANCH  10  11
ATOM     11  C   LIG    1       -0.453  -2.163   1.463  0.00  0.00    +0.020 C 
BRANCH  11  12
ATOM     12  C   LIG    1        0.351  -2.893   2.541  0.00  0.00    +0.010 C 
BRANCH  12  13
ATOM     13  C   LIG    1        1.617  -2.095   2.861  0.00  0.00    -0.030 C 
ATOM     14  C   LIG    1        2.525  -2.064   1.630  0.00  0.00    +0.010 C 
ATOM     15  C   LIG    1        2.357  -2.758   4.025  0.00  0.00    +0.020 C 
ENDBRANCH  12  13
ENDBRANCH  11  12
ENDBRANCH  10  11
ENDBRANCH   1  10
TORSDOF 7
ENDMDL
MODEL      909
REMARK  Name = ZINC000607742522
REMARK                            x       y       z     vdW  Elec       q    Type
REMARK                         _______ _______ _______ _____ _____    ______ ____
ROOT
ATOM      1  N   LIG    1       -2.794  -2.566  -0.111  0.00  0.00    -0.370 N 
ATOM      2  C   LIG    1       -3.508  -2.099  -1.312  0.00  0.00    +0.250 C 
ATOM      3  C   LIG    1       -4.957  -2.037  -1.147  0.00  0.00    -0.030 C 
ATOM      4  C   LIG    1       -5.546  -3.438  -0.856  0.00  0.00    +0.040 C 
ATOM      5  C   LIG    1       -5.239  -3.819   0.569  0.00  0.00    +0.010 C 
ATOM      6  C   LIG    1       -3.917  -4.595   0.720  0.00  0.00    +0.060 C 
ATOM      7  C   LIG    1       -5.585  -1.485  -2.429  0.00  0.00    +0.070 C 
ATOM      8  C   LIG    1       -2.783  -4.011  -0.139  0.00  0.00    +0.150 C 
ATOM      9  C   LIG    1       -1.440  -4.513   0.394  0.00  0.00    +0.080 C 
ATOM     10  H   LIG    1       -3.271  -2.244   0.718  0.00  0.00    +0.420 HD
ENDROOT
BRANCH   1  11
ATOM     11  C   LIG    1       -1.416  -2.058  -0.121  0.00  0.00    +0.250 C 
BRANCH  11  12
ATOM     12  C   LIG    1       -1.433  -0.534   0.013  0.00  0.00    +0.030 C 
BRANCH  12  14
ATOM     13  C   LIG    1       -0.019   1.526   0.010  0.00  0.00    +0.040 C 
ATOM     14  C   LIG    1        0.002  -0.004   0.002  0.00  0.00    -0.010 C 
ATOM     15  C   LIG    1        0.742  -0.511   1.242  0.00  0.00    +0.020 C 
ENDBRANCH  12  14
ENDBRANCH  11  12
ENDBRANCH   1  11
TORSDOF 3
ENDMDL
MODEL      910
REMARK  Name = ZINC000607742519
REMARK                            x       y       z     vdW  Elec       q    Type
REMARK                         _______ _______ _______ _____ _____    ______ ____
ROOT
ATOM      1  N   LIG    1       -2.800  -2.568  -0.111  0.00  0.00    -0.370 N 
ATOM      2  C   LIG    1       -3.516  -1.999  -1.262  0.00  0.00    +0.240 C 
ATOM      3  C   LIG    1       -5.008  -2.357  -1.351  0.00  0.00    +0.000 C 
ATOM      4  C   LIG    1       -5.596  -2.828  -0.049  0.00  0.00    +0.030 C 
ATOM      5  C   LIG    1       -5.256  -4.327   0.137  0.00  0.00    +0.030 C 
ATOM      6  C   LIG    1       -3.960  -4.510   0.767  0.00  0.00    +0.050 C 
ATOM      7  C   LIG    1       -5.780  -1.118  -1.813  0.00  0.00    +0.050 C 
ATOM      8  C   LIG    1       -2.757  -3.999  -0.032  0.00  0.00    +0.150 C 
ATOM      9  C   LIG    1       -2.679  -4.665  -1.401  0.00  0.00    +0.090 C 
ATOM     10  H   LIG    1       -3.237  -2.217   0.741  0.00  0.00    +0.420 HD
ENDROOT
BRANCH   1  11
ATOM     11  C   LIG    1       -1.416  -2.058  -0.121  0.00  0.00    +0.240 C 
BRANCH  11  12
ATOM     12  C   LIG    1       -1.433  -0.534   0.013  0.00  0.00    +0.030 C 
BRANCH  12  14
ATOM     13  C   LIG    1       -0.019   1.526   0.010  0.00  0.00    +0.040 C 
ATOM     14  C   LIG    1        0.002  -0.004   0.002  0.00  0.00    -0.010 C 
ATOM     15  C   LIG    1        0.742  -0.511   1.242  0.00  0.00    +0.020 C 
ENDBRANCH  12  14
ENDBRANCH  11  12
ENDBRANCH   1  11
TORSDOF 3
ENDMDL
MODEL      911
REMARK  Name = ZINC000607751180
REMARK                            x       y       z     vdW  Elec       q    Type
REMARK                         _______ _______ _______ _____ _____    ______ ____
ROOT
ATOM      1  N   LIG    1        1.421  -3.963  -2.444  0.00  0.00    -0.380 N 
ATOM      2  H   LIG    1        0.571  -4.472  -2.252  0.00  0.00    +0.420 HD
ENDROOT
BRANCH   1   3
ATOM      3  C   LIG    1        2.331  -4.080  -1.297  0.00  0.00    +0.160 C 
ATOM      4  C   LIG    1        3.630  -3.329  -1.598  0.00  0.00    +0.080 C 
ATOM      5  C   LIG    1        2.643  -5.556  -1.042  0.00  0.00    +0.080 C 
ENDBRANCH   1   3
BRANCH   1   6
ATOM      6  C   LIG    1        1.103  -2.548  -2.674  0.00  0.00    +0.240 C 
BRANCH   6   7
ATOM      7  C   LIG    1        0.296  -2.007  -1.492  0.00  0.00    +0.030 C 
BRANCH   7   8
ATOM      8  C   LIG    1        0.044  -0.511  -1.688  0.00  0.00    +0.020 C 
BRANCH   8  10
ATOM      9  C   LIG    1       -1.014   1.526  -0.702  0.00  0.00    +0.020 C 
ATOM     10  C   LIG    1       -0.762   0.030  -0.505  0.00  0.00    +0.000 C 
ENDBRANCH   8  10
ENDBRANCH   7   8
ENDBRANCH   6   7
ENDBRANCH   1   6
BRANCH   1  11
ATOM     11  C   LIG    1        2.065  -4.521  -3.640  0.00  0.00    +0.290 C 
BRANCH  11  12
ATOM     12  C   LIG    1        1.932  -6.045  -3.627  0.00  0.00    -0.090 C 
ATOM     13  C   LIG    1        1.154  -6.696  -4.772  0.00  0.00    +0.040 C 
ATOM     14  C   LIG    1        2.677  -6.829  -4.709  0.00  0.00    -0.010 C 
ATOM     15  C   LIG    1        3.252  -8.194  -4.324  0.00  0.00    +0.070 C 
ENDBRANCH  11  12
ENDBRANCH   1  11
TORSDOF 7
ENDMDL
MODEL      912
REMARK  Name = ZINC001170072719
REMARK                            x       y       z     vdW  Elec       q    Type
REMARK                         _______ _______ _______ _____ _____    ______ ____
ROOT
ATOM      1  C   LIG    1       -2.482  -4.891  -0.758  0.00  0.00    +0.150 C 
ATOM      2  C   LIG    1       -3.340  -6.127  -1.037  0.00  0.00    +0.090 C 
ENDROOT
BRANCH   1   3
ATOM      3  N   LIG    1       -1.877  -4.423  -2.012  0.00  0.00    -0.380 N 
ATOM      4  C   LIG    1       -2.880  -3.689  -2.796  0.00  0.00    +0.310 C 
ATOM      5  H   LIG    1       -1.548  -5.215  -2.544  0.00  0.00    +0.420 HD
BRANCH   3   6
ATOM      6  C   LIG    1       -0.747  -3.535  -1.709  0.00  0.00    +0.160 C 
ATOM      7  C   LIG    1        0.001  -3.201  -3.001  0.00  0.00    +0.080 C 
ATOM      8  C   LIG    1        0.204  -4.234  -0.735  0.00  0.00    +0.080 C 
ENDBRANCH   3   6
ENDBRANCH   1   3
BRANCH   1   9
ATOM      9  C   LIG    1       -3.359  -3.784  -0.170  0.00  0.00    +0.050 C 
BRANCH   9  10
ATOM     10  C   LIG    1       -2.480  -2.785   0.585  0.00  0.00    +0.010 C 
BRANCH  10  11
ATOM     11  C   LIG    1       -3.367  -1.763   1.298  0.00  0.00    +0.020 C 
BRANCH  11  13
ATOM     12  C   LIG    1       -3.368   0.330   2.663  0.00  0.00    +0.030 C 
ATOM     13  C   LIG    1       -2.488  -0.764   2.053  0.00  0.00    -0.030 C 
ATOM     14  C   LIG    1       -1.732  -1.490   3.167  0.00  0.00    +0.020 C 
ENDBRANCH  11  13
ENDBRANCH  10  11
ENDBRANCH   9  10
ENDBRANCH   1   9
TORSDOF 6
ENDMDL
MODEL      913
REMARK  Name = ZINC000607751179
REMARK                            x       y       z     vdW  Elec       q    Type
REMARK                         _______ _______ _______ _____ _____    ______ ____
ROOT
ATOM      1  N   LIG    1        1.094  -3.675  -2.465  0.00  0.00    -0.380 N 
ATOM      2  H   LIG    1        0.178  -4.041  -2.254  0.00  0.00    +0.420 HD
ENDROOT
BRANCH   1   3
ATOM      3  C   LIG    1        2.102  -4.393  -1.673  0.00  0.00    +0.160 C 
ATOM      4  C   LIG    1        3.502  -3.983  -2.137  0.00  0.00    +0.080 C 
ATOM      5  C   LIG    1        1.923  -5.900  -1.864  0.00  0.00    +0.080 C 
ENDBRANCH   1   3
BRANCH   1   6
ATOM      6  C   LIG    1        1.139  -2.244  -2.133  0.00  0.00    +0.250 C 
BRANCH   6   7
ATOM      7  C   LIG    1        0.720  -2.046  -0.675  0.00  0.00    +0.030 C 
BRANCH   7   8
ATOM      8  C   LIG    1        0.812  -0.562  -0.315  0.00  0.00    +0.020 C 
BRANCH   8  10
ATOM      9  C   LIG    1        0.486   1.121   1.503  0.00  0.00    +0.020 C 
ATOM     10  C   LIG    1        0.394  -0.363   1.143  0.00  0.00    +0.000 C 
ENDBRANCH   8  10
ENDBRANCH   7   8
ENDBRANCH   6   7
ENDBRANCH   1   6
BRANCH   1  11
ATOM     11  C   LIG    1        1.377  -3.854  -3.895  0.00  0.00    +0.280 C 
BRANCH  11  12
ATOM     12  C   LIG    1        1.116  -5.310  -4.288  0.00  0.00    -0.070 C 
ATOM     13  C   LIG    1        2.295  -6.117  -4.834  0.00  0.00    +0.050 C 
ATOM     14  C   LIG    1        1.177  -5.663  -5.775  0.00  0.00    -0.010 C 
ATOM     15  C   LIG    1        0.209  -6.731  -6.289  0.00  0.00    +0.070 C 
ENDBRANCH  11  12
ENDBRANCH   1  11
TORSDOF 7
ENDMDL
MODEL      914
REMARK  Name = ZINC000607751178
REMARK                            x       y       z     vdW  Elec       q    Type
REMARK                         _______ _______ _______ _____ _____    ______ ____
ROOT
ATOM      1  N   LIG    1        1.421  -3.963  -2.444  0.00  0.00    -0.380 N 
ATOM      2  H   LIG    1        0.570  -4.472  -2.252  0.00  0.00    +0.420 HD
ENDROOT
BRANCH   1   3
ATOM      3  C   LIG    1        2.330  -4.081  -1.297  0.00  0.00    +0.160 C 
ATOM      4  C   LIG    1        3.629  -3.330  -1.597  0.00  0.00    +0.080 C 
ATOM      5  C   LIG    1        2.642  -5.557  -1.042  0.00  0.00    +0.080 C 
ENDBRANCH   1   3
BRANCH   1   6
ATOM      6  C   LIG    1        1.103  -2.548  -2.674  0.00  0.00    +0.240 C 
BRANCH   6   7
ATOM      7  C   LIG    1        0.296  -2.007  -1.492  0.00  0.00    +0.030 C 
BRANCH   7   8
ATOM      8  C   LIG    1        0.044  -0.511  -1.687  0.00  0.00    +0.020 C 
BRANCH   8  10
ATOM      9  C   LIG    1       -1.014   1.526  -0.701  0.00  0.00    +0.020 C 
ATOM     10  C   LIG    1       -0.762   0.030  -0.505  0.00  0.00    +0.000 C 
ENDBRANCH   8  10
ENDBRANCH   7   8
ENDBRANCH   6   7
ENDBRANCH   1   6
BRANCH   1  11
ATOM     11  C   LIG    1        2.066  -4.521  -3.640  0.00  0.00    +0.290 C 
BRANCH  11  12
ATOM     12  C   LIG    1        1.932  -6.045  -3.627  0.00  0.00    -0.090 C 
ATOM     13  C   LIG    1        1.154  -6.696  -4.773  0.00  0.00    +0.040 C 
ATOM     14  C   LIG    1        2.678  -6.829  -4.710  0.00  0.00    +0.000 C 
ATOM     15  C   LIG    1        3.500  -6.028  -5.722  0.00  0.00    +0.060 C 
ENDBRANCH  11  12
ENDBRANCH   1  11
TORSDOF 7
ENDMDL
MODEL      915
REMARK  Name = ZINC000607748510
REMARK                            x       y       z     vdW  Elec       q    Type
REMARK                         _______ _______ _______ _____ _____    ______ ____
ROOT
ATOM      1  N   LIG    1       -3.097  -2.183  -0.197  0.00  0.00    -0.370 N 
ATOM      2  C   LIG    1       -3.874  -1.883  -1.378  0.00  0.00    +0.230 C 
ATOM      3  C   LIG    1       -5.375  -1.795  -1.052  0.00  0.00    +0.060 C 
ATOM      4  C   LIG    1       -5.834  -2.891  -0.070  0.00  0.00    +0.030 C 
ATOM      5  C   LIG    1       -5.245  -4.244  -0.369  0.00  0.00    -0.070 C 
ATOM      6  C   LIG    1       -3.925  -4.411   0.422  0.00  0.00    +0.060 C 
ATOM      7  C   LIG    1       -4.962  -4.358  -1.868  0.00  0.00    +0.030 C 
ATOM      8  C   LIG    1       -6.233  -5.335   0.049  0.00  0.00    +0.050 C 
ATOM      9  C   LIG    1       -2.847  -3.635  -0.183  0.00  0.00    +0.250 C 
ATOM     10  H   LIG    1       -3.613  -1.916   0.628  0.00  0.00    +0.420 HD
ENDROOT
BRANCH   1  11
ATOM     11  C   LIG    1       -1.821  -1.458  -0.243  0.00  0.00    +0.250 C 
BRANCH  11  12
ATOM     12  C   LIG    1       -2.085   0.046  -0.154  0.00  0.00    +0.040 C 
BRANCH  12  14
ATOM     13  C   LIG    1       -1.024   2.307  -0.239  0.00  0.00    +0.040 C 
ATOM     14  C   LIG    1       -0.755   0.801  -0.202  0.00  0.00    -0.010 C 
ATOM     15  C   LIG    1        0.070   0.461   1.041  0.00  0.00    +0.020 C 
ENDBRANCH  12  14
ENDBRANCH  11  12
ENDBRANCH   1  11
TORSDOF 3
ENDMDL
MODEL      916
REMARK  Name = ZINC000607751181
REMARK                            x       y       z     vdW  Elec       q    Type
REMARK                         _______ _______ _______ _____ _____    ______ ____
ROOT
ATOM      1  N   LIG    1        1.094  -3.675  -2.463  0.00  0.00    -0.380 N 
ATOM      2  H   LIG    1        0.178  -4.042  -2.253  0.00  0.00    +0.420 HD
ENDROOT
BRANCH   1   3
ATOM      3  C   LIG    1        2.103  -4.394  -1.673  0.00  0.00    +0.160 C 
ATOM      4  C   LIG    1        3.502  -3.982  -2.136  0.00  0.00    +0.080 C 
ATOM      5  C   LIG    1        1.924  -5.901  -1.867  0.00  0.00    +0.080 C 
ENDBRANCH   1   3
BRANCH   1   6
ATOM      6  C   LIG    1        1.138  -2.245  -2.128  0.00  0.00    +0.250 C 
BRANCH   6   7
ATOM      7  C   LIG    1        0.720  -2.050  -0.669  0.00  0.00    +0.030 C 
BRANCH   7   8
ATOM      8  C   LIG    1        0.812  -0.566  -0.307  0.00  0.00    +0.020 C 
BRANCH   8  10
ATOM      9  C   LIG    1        0.485   1.113   1.514  0.00  0.00    +0.020 C 
ATOM     10  C   LIG    1        0.394  -0.371   1.152  0.00  0.00    +0.000 C 
ENDBRANCH   8  10
ENDBRANCH   7   8
ENDBRANCH   6   7
ENDBRANCH   1   6
BRANCH   1  11
ATOM     11  C   LIG    1        1.376  -3.852  -3.894  0.00  0.00    +0.280 C 
BRANCH  11  12
ATOM     12  C   LIG    1        1.115  -5.307  -4.289  0.00  0.00    -0.070 C 
ATOM     13  C   LIG    1        2.295  -6.112  -4.837  0.00  0.00    +0.050 C 
ATOM     14  C   LIG    1        1.176  -5.656  -5.777  0.00  0.00    +0.000 C 
ATOM     15  C   LIG    1        1.494  -4.525  -6.757  0.00  0.00    +0.060 C 
ENDBRANCH  11  12
ENDBRANCH   1  11
TORSDOF 7
ENDMDL
MODEL      917
REMARK  Name = ZINC000607742521
REMARK                            x       y       z     vdW  Elec       q    Type
REMARK                         _______ _______ _______ _____ _____    ______ ____
ROOT
ATOM      1  N   LIG    1       -2.785  -2.574   0.009  0.00  0.00    -0.380 N 
ATOM      2  C   LIG    1       -3.551  -2.171  -1.145  0.00  0.00    +0.250 C 
ATOM      3  C   LIG    1       -4.978  -1.849  -0.675  0.00  0.00    -0.010 C 
ATOM      4  C   LIG    1       -5.826  -3.029  -0.567  0.00  0.00    +0.040 C 
ATOM      5  C   LIG    1       -5.258  -4.028   0.472  0.00  0.00    +0.020 C 
ATOM      6  C   LIG    1       -4.077  -4.739  -0.132  0.00  0.00    +0.060 C 
ATOM      7  C   LIG    1       -5.616  -0.877  -1.670  0.00  0.00    +0.060 C 
ATOM      8  C   LIG    1       -2.732  -4.045   0.149  0.00  0.00    +0.160 C 
ATOM      9  C   LIG    1       -1.686  -4.593  -0.824  0.00  0.00    +0.070 C 
ATOM     10  H   LIG    1       -3.206  -2.180   0.837  0.00  0.00    +0.420 HD
ENDROOT
BRANCH   1  11
ATOM     11  C   LIG    1       -1.416  -2.058  -0.121  0.00  0.00    +0.240 C 
BRANCH  11  12
ATOM     12  C   LIG    1       -1.443  -0.528  -0.090  0.00  0.00    +0.040 C 
BRANCH  12  14
ATOM     13  C   LIG    1       -0.036   1.534  -0.188  0.00  0.00    +0.040 C 
ATOM     14  C   LIG    1       -0.009   0.007  -0.093  0.00  0.00    -0.010 C 
ATOM     15  C   LIG    1        0.694  -0.411   1.200  0.00  0.00    +0.020 C 
ENDBRANCH  12  14
ENDBRANCH  11  12
ENDBRANCH   1  11
TORSDOF 3
ENDMDL
MODEL      918
REMARK  Name = ZINC000607742520
REMARK                            x       y       z     vdW  Elec       q    Type
REMARK                         _______ _______ _______ _____ _____    ______ ____
ROOT
ATOM      1  N   LIG    1       -2.794  -2.566  -0.111  0.00  0.00    -0.380 N 
ATOM      2  C   LIG    1       -3.507  -2.047  -1.298  0.00  0.00    +0.250 C 
ATOM      3  C   LIG    1       -4.790  -2.828  -1.634  0.00  0.00    -0.020 C 
ATOM      4  C   LIG    1       -5.619  -3.171  -0.425  0.00  0.00    +0.030 C 
ATOM      5  C   LIG    1       -5.192  -4.566   0.096  0.00  0.00    +0.030 C 
ATOM      6  C   LIG    1       -3.918  -4.493   0.801  0.00  0.00    +0.050 C 
ATOM      7  C   LIG    1       -5.641  -1.985  -2.586  0.00  0.00    +0.070 C 
ATOM      8  C   LIG    1       -2.762  -4.008  -0.091  0.00  0.00    +0.160 C 
ATOM      9  C   LIG    1       -1.428  -4.489   0.484  0.00  0.00    +0.080 C 
ATOM     10  H   LIG    1       -3.259  -2.236   0.722  0.00  0.00    +0.420 HD
ENDROOT
BRANCH   1  11
ATOM     11  C   LIG    1       -1.416  -2.058  -0.121  0.00  0.00    +0.240 C 
BRANCH  11  12
ATOM     12  C   LIG    1       -1.433  -0.534   0.013  0.00  0.00    +0.030 C 
BRANCH  12  14
ATOM     13  C   LIG    1       -0.019   1.526   0.010  0.00  0.00    +0.040 C 
ATOM     14  C   LIG    1        0.002  -0.004   0.002  0.00  0.00    -0.010 C 
ATOM     15  C   LIG    1        0.742  -0.511   1.242  0.00  0.00    +0.020 C 
ENDBRANCH  12  14
ENDBRANCH  11  12
ENDBRANCH   1  11
TORSDOF 3
ENDMDL
MODEL      919
REMARK  Name = ZINC001170073805
REMARK                            x       y       z     vdW  Elec       q    Type
REMARK                         _______ _______ _______ _____ _____    ______ ____
ROOT
ATOM      1  C   LIG    1       -1.663  -4.331   0.013  0.00  0.00    +0.160 C 
ATOM      2  C   LIG    1       -3.151  -4.232   0.355  0.00  0.00    +0.080 C 
ENDROOT
BRANCH   1   3
ATOM      3  N   LIG    1       -1.494  -5.128  -1.210  0.00  0.00    -0.380 N 
ATOM      4  C   LIG    1       -0.065  -5.164  -1.586  0.00  0.00    +0.260 C 
ATOM      5  C   LIG    1        0.158  -6.587  -2.158  0.00  0.00    +0.070 C 
ATOM      6  C   LIG    1       -0.751  -7.441  -1.235  0.00  0.00    +0.070 C 
ATOM      7  C   LIG    1       -1.948  -6.510  -0.969  0.00  0.00    +0.160 C 
ATOM      8  C   LIG    1       -2.415  -6.663   0.480  0.00  0.00    +0.090 C 
ATOM      9  H   LIG    1       -2.032  -4.720  -1.960  0.00  0.00    +0.420 HD
ENDBRANCH   1   3
BRANCH   1  10
ATOM     10  C   LIG    1       -1.097  -2.928  -0.211  0.00  0.00    +0.060 C 
BRANCH  10  11
ATOM     11  C   LIG    1        0.418  -3.014  -0.405  0.00  0.00    +0.010 C 
BRANCH  11  12
ATOM     12  C   LIG    1        1.067  -1.709   0.060  0.00  0.00    +0.020 C 
BRANCH  12  14
ATOM     13  C   LIG    1        3.218  -0.448   0.213  0.00  0.00    +0.030 C 
ATOM     14  C   LIG    1        2.582  -1.795  -0.134  0.00  0.00    -0.030 C 
ATOM     15  C   LIG    1        3.153  -2.880   0.782  0.00  0.00    +0.020 C 
ENDBRANCH  12  14
ENDBRANCH  11  12
ENDBRANCH  10  11
ENDBRANCH   1  10
TORSDOF 5
ENDMDL
MODEL      920
REMARK  Name = ZINC001170073808
REMARK                            x       y       z     vdW  Elec       q    Type
REMARK                         _______ _______ _______ _____ _____    ______ ____
ROOT
ATOM      1  C   LIG    1       -2.776  -4.075  -0.387  0.00  0.00    +0.160 C 
ATOM      2  C   LIG    1       -4.300  -4.123  -0.258  0.00  0.00    +0.090 C 
ENDROOT
BRANCH   1   3
ATOM      3  N   LIG    1       -2.179  -5.114   0.463  0.00  0.00    -0.390 N 
ATOM      4  C   LIG    1       -2.932  -5.211   1.732  0.00  0.00    +0.240 C 
ATOM      5  C   LIG    1       -2.923  -6.720   2.082  0.00  0.00    +0.080 C 
ATOM      6  C   LIG    1       -3.060  -7.368   0.678  0.00  0.00    +0.070 C 
ATOM      7  C   LIG    1       -2.250  -6.417  -0.223  0.00  0.00    +0.160 C 
ATOM      8  C   LIG    1       -2.947  -6.260  -1.575  0.00  0.00    +0.080 C 
ATOM      9  H   LIG    1       -1.216  -4.883   0.656  0.00  0.00    +0.420 HD
ENDBRANCH   1   3
BRANCH   1  10
ATOM     10  C   LIG    1       -2.271  -2.700   0.057  0.00  0.00    +0.060 C 
BRANCH  10  11
ATOM     11  C   LIG    1       -0.757  -2.623  -0.150  0.00  0.00    -0.000 C 
BRANCH  11  12
ATOM     12  C   LIG    1       -0.270  -1.209   0.172  0.00  0.00    +0.020 C 
BRANCH  12  14
ATOM     13  C   LIG    1        1.713   0.311   0.167  0.00  0.00    +0.030 C 
ATOM     14  C   LIG    1        1.244  -1.131  -0.034  0.00  0.00    -0.030 C 
ATOM     15  C   LIG    1        1.944  -2.041   0.977  0.00  0.00    +0.020 C 
ENDBRANCH  12  14
ENDBRANCH  11  12
ENDBRANCH  10  11
ENDBRANCH   1  10
TORSDOF 5
ENDMDL
MODEL      921
REMARK  Name = ZINC001170078788
REMARK                            x       y       z     vdW  Elec       q    Type
REMARK                         _______ _______ _______ _____ _____    ______ ____
ROOT
ATOM      1  C   LIG    1       -2.713  -4.108  -0.207  0.00  0.00    +0.160 C 
ATOM      2  C   LIG    1       -4.123  -4.701  -0.176  0.00  0.00    +0.090 C 
ENDROOT
BRANCH   1   3
ATOM      3  N   LIG    1       -2.062  -4.460  -1.476  0.00  0.00    -0.390 N 
ATOM      4  C   LIG    1       -0.649  -4.000  -1.472  0.00  0.00    +0.250 C 
ATOM      5  C   LIG    1        0.019  -4.897  -2.544  0.00  0.00    +0.080 C 
ATOM      6  C   LIG    1       -0.679  -6.261  -2.338  0.00  0.00    +0.000 C 
ATOM      7  C   LIG    1       -0.947  -6.929  -3.687  0.00  0.00    +0.050 C 
ATOM      8  C   LIG    1       -2.007  -5.930  -1.630  0.00  0.00    +0.250 C 
ATOM      9  H   LIG    1       -2.560  -4.048  -2.250  0.00  0.00    +0.420 HD
ENDBRANCH   1   3
BRANCH   1  10
ATOM     10  C   LIG    1       -2.798  -2.585  -0.084  0.00  0.00    +0.040 C 
BRANCH  10  11
ATOM     11  C   LIG    1       -3.348  -2.216   1.296  0.00  0.00    +0.030 C 
BRANCH  11  12
ATOM     12  C   LIG    1       -3.302  -0.697   1.472  0.00  0.00    +0.020 C 
BRANCH  12  14
ATOM     13  C   LIG    1       -3.692   1.178   3.078  0.00  0.00    +0.030 C 
ATOM     14  C   LIG    1       -3.853  -0.327   2.851  0.00  0.00    -0.030 C 
ATOM     15  C   LIG    1       -5.335  -0.699   2.926  0.00  0.00    +0.020 C 
ENDBRANCH  12  14
ENDBRANCH  11  12
ENDBRANCH  10  11
ENDBRANCH   1  10
TORSDOF 5
ENDMDL
MODEL      922
REMARK  Name = ZINC001170074469
REMARK                            x       y       z     vdW  Elec       q    Type
REMARK                         _______ _______ _______ _____ _____    ______ ____
ROOT
ATOM      1  C   LIG    1        1.395  -3.782  -2.400  0.00  0.00    +0.160 C 
ATOM      2  C   LIG    1       -0.114  -4.015  -2.499  0.00  0.00    +0.080 C 
ENDROOT
BRANCH   1   3
ATOM      3  N   LIG    1        1.668  -2.339  -2.400  0.00  0.00    -0.380 N 
ATOM      4  C   LIG    1        1.123  -1.737  -1.176  0.00  0.00    +0.310 C 
ATOM      5  H   LIG    1        2.665  -2.186  -2.435  0.00  0.00    +0.420 HD
BRANCH   3   6
ATOM      6  C   LIG    1        1.036  -1.721  -3.573  0.00  0.00    +0.240 C 
BRANCH   6   7
ATOM      7  C   LIG    1        1.424  -0.243  -3.642  0.00  0.00    +0.020 C 
BRANCH   7   9
ATOM      8  C   LIG    1        1.154   1.879  -4.933  0.00  0.00    +0.030 C 
ATOM      9  C   LIG    1        0.766   0.401  -4.864  0.00  0.00    +0.020 C 
ENDBRANCH   7   9
ENDBRANCH   6   7
ENDBRANCH   3   6
ENDBRANCH   1   3
BRANCH   1  10
ATOM     10  C   LIG    1        2.091  -4.434  -3.596  0.00  0.00    +0.050 C 
BRANCH  10  11
ATOM     11  C   LIG    1        3.607  -4.312  -3.432  0.00  0.00    -0.000 C 
BRANCH  11  12
ATOM     12  C   LIG    1        4.305  -5.074  -4.560  0.00  0.00    +0.020 C 
BRANCH  12  13
ATOM     13  C   LIG    1        5.821  -4.952  -4.396  0.00  0.00    -0.030 C 
ATOM     14  C   LIG    1        6.238  -3.491  -4.577  0.00  0.00    +0.020 C 
ATOM     15  C   LIG    1        6.519  -5.815  -5.449  0.00  0.00    +0.030 C 
ENDBRANCH  12  13
ENDBRANCH  11  12
ENDBRANCH  10  11
ENDBRANCH   1  10
TORSDOF 8
ENDMDL
MODEL      923
REMARK  Name = ZINC001170072722
REMARK                            x       y       z     vdW  Elec       q    Type
REMARK                         _______ _______ _______ _____ _____    ______ ____
ROOT
ATOM      1  C   LIG    1       -2.778  -4.125  -0.109  0.00  0.00    +0.160 C 
ATOM      2  C   LIG    1       -4.113  -4.733  -0.543  0.00  0.00    +0.080 C 
ENDROOT
BRANCH   1   3
ATOM      3  N   LIG    1       -2.361  -4.717   1.169  0.00  0.00    -0.380 N 
ATOM      4  C   LIG    1       -3.422  -4.525   2.166  0.00  0.00    +0.320 C 
ATOM      5  H   LIG    1       -1.515  -4.270   1.487  0.00  0.00    +0.420 HD
BRANCH   3   6
ATOM      6  C   LIG    1       -2.117  -6.154   0.985  0.00  0.00    +0.160 C 
ATOM      7  C   LIG    1       -1.791  -6.793   2.337  0.00  0.00    +0.090 C 
ATOM      8  C   LIG    1       -0.938  -6.353   0.030  0.00  0.00    +0.090 C 
ENDBRANCH   3   6
ENDBRANCH   1   3
BRANCH   1   9
ATOM      9  C   LIG    1       -2.937  -2.612   0.058  0.00  0.00    +0.050 C 
BRANCH   9  10
ATOM     10  C   LIG    1       -1.582  -1.992   0.407  0.00  0.00    -0.000 C 
BRANCH  10  11
ATOM     11  C   LIG    1       -1.713  -0.468   0.446  0.00  0.00    +0.020 C 
BRANCH  11  13
ATOM     12  C   LIG    1       -0.441   1.679   0.555  0.00  0.00    +0.030 C 
ATOM     13  C   LIG    1       -0.334   0.157   0.664  0.00  0.00    -0.030 C 
ATOM     14  C   LIG    1        0.183  -0.220   2.054  0.00  0.00    +0.020 C 
ENDBRANCH  11  13
ENDBRANCH  10  11
ENDBRANCH   9  10
ENDBRANCH   1   9
TORSDOF 6
ENDMDL
MODEL      924
REMARK  Name = ZINC001170078405
REMARK                            x       y       z     vdW  Elec       q    Type
REMARK                         _______ _______ _______ _____ _____    ______ ____
ROOT
ATOM      1  C   LIG    1        2.370  -1.248   1.952  0.00  0.00    +0.160 C 
ATOM      2  C   LIG    1        3.849  -1.253   2.348  0.00  0.00    +0.080 C 
ENDROOT
BRANCH   1   3
ATOM      3  N   LIG    1        2.208  -0.539   0.675  0.00  0.00    -0.380 N 
ATOM      4  C   LIG    1        3.112  -1.121  -0.326  0.00  0.00    +0.310 C 
ATOM      5  H   LIG    1        1.254  -0.630   0.359  0.00  0.00    +0.420 HD
BRANCH   3   6
ATOM      6  C   LIG    1        2.531   0.882   0.859  0.00  0.00    +0.160 C 
ATOM      7  C   LIG    1        1.534   1.509   1.835  0.00  0.00    +0.090 C 
BRANCH   6   9
ATOM      8  C   LIG    1        3.750   1.390  -1.262  0.00  0.00    +0.030 C 
ATOM      9  C   LIG    1        2.447   1.602  -0.489  0.00  0.00    +0.050 C 
ENDBRANCH   6   9
ENDBRANCH   3   6
ENDBRANCH   1   3
BRANCH   1  10
ATOM     10  C   LIG    1        1.877  -2.688   1.803  0.00  0.00    +0.050 C 
BRANCH  10  11
ATOM     11  C   LIG    1        0.377  -2.685   1.504  0.00  0.00    -0.000 C 
BRANCH  11  12
ATOM     12  C   LIG    1       -0.141  -4.125   1.479  0.00  0.00    +0.020 C 
BRANCH  12  13
ATOM     13  C   LIG    1       -1.621  -4.128   1.091  0.00  0.00    -0.030 C 
ATOM     14  C   LIG    1       -2.175  -5.549   1.205  0.00  0.00    +0.030 C 
ATOM     15  C   LIG    1       -1.771  -3.636  -0.350  0.00  0.00    +0.020 C 
ENDBRANCH  12  13
ENDBRANCH  11  12
ENDBRANCH  10  11
ENDBRANCH   1  10
TORSDOF 7
ENDMDL
