MODEL        1
REMARK  Name = ZINC000001233463
REMARK                            x       y       z     vdW  Elec       q    Type
REMARK                         _______ _______ _______ _____ _____    ______ ____
ROOT
ATOM      1  C   LIG    1        0.791  -2.051   1.082  0.00  0.00    +0.150 C 
ATOM      2  C   LIG    1        1.264  -2.471   2.475  0.00  0.00    +0.060 C 
ATOM      3  C   LIG    1        1.372  -3.998   2.533  0.00  0.00    +0.030 C 
ATOM      4  C   LIG    1        2.321  -4.474   1.429  0.00  0.00    +0.060 C 
ATOM      5  C   LIG    1        1.809  -3.980   0.075  0.00  0.00    +0.160 C 
ATOM      6  N   LIG    1        1.754  -2.513   0.075  0.00  0.00    -0.260 N 
ATOM      7  C   LIG    1        3.084  -1.974   0.387  0.00  0.00    +0.310 C 
ATOM      8  C   LIG    1        1.336  -2.040  -1.252  0.00  0.00    +0.310 C 
ENDROOT
BRANCH   1   9
ATOM      9  C   LIG    1        0.681  -0.526   1.020  0.00  0.00    +0.040 C 
BRANCH   9  11
ATOM     10  C   LIG    1       -0.470   1.474   1.978  0.00  0.00    +0.030 C 
ATOM     11  C   LIG    1       -0.425  -0.056   1.966  0.00  0.00    +0.020 C 
ENDBRANCH   9  11
ENDBRANCH   1   9
BRANCH   5  12
ATOM     12  C   LIG    1        0.408  -4.542  -0.176  0.00  0.00    +0.020 C 
BRANCH  12  13
ATOM     13  C   LIG    1        0.487  -6.064  -0.318  0.00  0.00    +0.020 C 
ATOM     14  C   LIG    1       -0.924  -6.636  -0.471  0.00  0.00    +0.030 C 
ENDBRANCH  12  13
ENDBRANCH   5  12
TORSDOF 4
ENDMDL
MODEL        2
REMARK  Name = ZINC000001233464
REMARK                            x       y       z     vdW  Elec       q    Type
REMARK                         _______ _______ _______ _____ _____    ______ ____
ROOT
ATOM      1  C   LIG    1        0.900  -2.487   1.046  0.00  0.00    +0.160 C 
ATOM      2  C   LIG    1        1.597  -2.998   2.309  0.00  0.00    +0.060 C 
ATOM      3  C   LIG    1        1.081  -2.217   3.522  0.00  0.00    +0.030 C 
ATOM      4  C   LIG    1       -0.442  -2.362   3.599  0.00  0.00    +0.060 C 
ATOM      5  C   LIG    1       -1.063  -1.875   2.288  0.00  0.00    +0.150 C 
ATOM      6  N   LIG    1       -0.550  -2.678   1.173  0.00  0.00    -0.260 N 
ATOM      7  C   LIG    1       -0.836  -4.097   1.420  0.00  0.00    +0.310 C 
ATOM      8  C   LIG    1       -1.207  -2.259  -0.073  0.00  0.00    +0.310 C 
ENDROOT
BRANCH   1   9
ATOM      9  C   LIG    1        1.204  -0.999   0.863  0.00  0.00    +0.020 C 
BRANCH   9  11
ATOM     10  C   LIG    1        2.980   0.656   0.272  0.00  0.00    +0.030 C 
ATOM     11  C   LIG    1        2.698  -0.813   0.590  0.00  0.00    +0.020 C 
ENDBRANCH   9  11
ENDBRANCH   1   9
BRANCH   5  12
ATOM     12  C   LIG    1       -2.585  -2.019   2.361  0.00  0.00    +0.040 C 
BRANCH  12  13
ATOM     13  C   LIG    1       -3.128  -1.131   3.482  0.00  0.00    +0.020 C 
ATOM     14  C   LIG    1       -4.657  -1.168   3.467  0.00  0.00    +0.030 C 
ENDBRANCH  12  13
ENDBRANCH   5  12
TORSDOF 4
ENDMDL
MODEL        3
REMARK  Name = ZINC000001233462
REMARK                            x       y       z     vdW  Elec       q    Type
REMARK                         _______ _______ _______ _____ _____    ______ ____
ROOT
ATOM      1  C   LIG    1        1.004  -1.852   1.399  0.00  0.00    +0.160 C 
ATOM      2  C   LIG    1        1.495  -2.281   2.783  0.00  0.00    +0.060 C 
ATOM      3  C   LIG    1        1.440  -3.808   2.888  0.00  0.00    +0.040 C 
ATOM      4  C   LIG    1        2.277  -4.418   1.760  0.00  0.00    +0.060 C 
ATOM      5  C   LIG    1        1.757  -3.909   0.413  0.00  0.00    +0.160 C 
ATOM      6  N   LIG    1        1.861  -2.446   0.366  0.00  0.00    -0.260 N 
ATOM      7  C   LIG    1        3.256  -2.048   0.600  0.00  0.00    +0.310 C 
ATOM      8  C   LIG    1        1.434  -1.969  -0.956  0.00  0.00    +0.310 C 
ENDROOT
BRANCH   1   9
ATOM      9  C   LIG    1        1.057  -0.327   1.290  0.00  0.00    +0.030 C 
BRANCH   9  11
ATOM     10  C   LIG    1        0.175   1.815   2.227  0.00  0.00    +0.030 C 
ATOM     11  C   LIG    1        0.058   0.290   2.271  0.00  0.00    +0.020 C 
ENDBRANCH   9  11
ENDBRANCH   1   9
BRANCH   5  12
ATOM     12  C   LIG    1        2.591  -4.516  -0.717  0.00  0.00    +0.030 C 
BRANCH  12  13
ATOM     13  C   LIG    1        2.422  -6.036  -0.716  0.00  0.00    +0.020 C 
ATOM     14  C   LIG    1        3.152  -6.631  -1.922  0.00  0.00    +0.030 C 
ENDBRANCH  12  13
ENDBRANCH   5  12
TORSDOF 4
ENDMDL
