MODEL        1
REMARK  Name = ZINC000000967824
REMARK                            x       y       z     vdW  Elec       q    Type
REMARK                         _______ _______ _______ _____ _____    ______ ____
ROOT
ATOM      1  C   LIG    1        0.002  -0.004   0.002  0.00  0.00    +0.120 A 
ATOM      2  C   LIG    1        0.006  -0.669  -1.178  0.00  0.00    -0.010 A 
ATOM      3  C   LIG    1        0.025  -2.081  -1.230  0.00  0.00    -0.040 A 
ATOM      4  C   LIG    1        0.028  -2.748  -2.465  0.00  0.00    +0.030 A 
ATOM      5  C   LIG    1        0.046  -4.111  -2.500  0.00  0.00    +0.020 A 
ATOM      6  C   LIG    1        0.062  -4.855  -1.326  0.00  0.00    +0.020 A 
ATOM      7  C   LIG    1        0.059  -4.236  -0.109  0.00  0.00    +0.030 A 
ATOM      8  C   LIG    1        0.041  -2.841  -0.039  0.00  0.00    -0.050 A 
ATOM      9  C   LIG    1        0.037  -2.148   1.253  0.00  0.00    -0.030 A 
ATOM     10  C   LIG    1        0.052  -2.851   2.459  0.00  0.00    +0.020 A 
ATOM     11  C   LIG    1        0.048  -2.166   3.641  0.00  0.00    +0.020 A 
ATOM     12  C   LIG    1        0.028  -0.776   3.658  0.00  0.00    +0.010 A 
ATOM     13  C   LIG    1        0.013  -0.062   2.495  0.00  0.00    +0.040 A 
ATOM     14  C   LIG    1        0.024  -0.735   1.268  0.00  0.00    -0.070 A 
ENDROOT
BRANCH   1  15
ATOM     15  O   LIG    1       -0.016   1.354   0.009  0.00  0.00    -0.490 OA
ATOM     16  H   LIG    1        0.862   1.759   0.003  0.00  0.00    +0.390 HD
ENDBRANCH   1  15
TORSDOF 1
ENDMDL
MODEL        2
REMARK  Name = ZINC000000967819
REMARK                            x       y       z     vdW  Elec       q    Type
REMARK                         _______ _______ _______ _____ _____    ______ ____
ROOT
ATOM      1  C   LIG    1       -0.016   1.360   0.009  0.00  0.00    +0.010 A 
ATOM      2  C   LIG    1        1.166   2.090   0.002  0.00  0.00    +0.020 A 
ATOM      3  C   LIG    1        2.377   1.457  -0.013  0.00  0.00    +0.020 A 
ATOM      4  C   LIG    1        2.429   0.063  -0.021  0.00  0.00    -0.040 A 
ATOM      5  C   LIG    1        1.228  -0.683  -0.013  0.00  0.00    -0.050 A 
ATOM      6  C   LIG    1        1.277  -2.097  -0.021  0.00  0.00    +0.030 A 
ATOM      7  C   LIG    1        2.451  -2.760  -0.036  0.00  0.00    +0.030 A 
ATOM      8  C   LIG    1        3.686  -2.071  -0.045  0.00  0.00    -0.050 A 
ATOM      9  C   LIG    1        4.901  -2.771  -0.061  0.00  0.00    +0.030 A 
ATOM     10  C   LIG    1        6.079  -2.082  -0.070  0.00  0.00    +0.010 A 
ATOM     11  C   LIG    1        6.093  -0.693  -0.062  0.00  0.00    +0.020 A 
ATOM     12  C   LIG    1        4.926   0.018  -0.046  0.00  0.00    +0.020 A 
ATOM     13  C   LIG    1        3.705  -0.658  -0.038  0.00  0.00    -0.040 A 
ATOM     14  C   LIG    1        0.002  -0.004   0.002  0.00  0.00    +0.030 A 
ENDROOT
TORSDOF 0
ENDMDL
MODEL        3
REMARK  Name = ZINC000001569533
REMARK                            x       y       z     vdW  Elec       q    Type
REMARK                         _______ _______ _______ _____ _____    ______ ____
ROOT
ATOM      1  C   LIG    1       -0.017   1.368   0.010  0.00  0.00    +0.000 A 
ATOM      2  C   LIG    1        1.129   2.168   0.003  0.00  0.00    +0.040 A 
ATOM      3  C   LIG    1        2.358   1.584  -0.012  0.00  0.00    -0.080 A 
ATOM      4  C   LIG    1        2.351   0.203  -0.019  0.00  0.00    -0.080 A 
ATOM      5  C   LIG    1        3.682  -0.321  -0.034  0.00  0.00    -0.080 A 
ATOM      6  C   LIG    1        4.619   0.693  -0.037  0.00  0.00    -0.080 A 
ATOM      7  C   LIG    1        5.917   0.281  -0.051  0.00  0.00    +0.040 A 
ATOM      8  C   LIG    1        6.208  -1.085  -0.061  0.00  0.00    +0.000 A 
ATOM      9  C   LIG    1        5.259  -2.075  -0.058  0.00  0.00    +0.030 A 
ATOM     10  C   LIG    1        3.911  -1.699  -0.044  0.00  0.00    -0.040 A 
ATOM     11  C   LIG    1        2.774  -2.538  -0.038  0.00  0.00    +0.030 A 
ATOM     12  C   LIG    1        1.504  -2.037  -0.023  0.00  0.00    +0.030 A 
ATOM     13  C   LIG    1        1.244  -0.648  -0.013  0.00  0.00    -0.040 A 
ATOM     14  C   LIG    1        3.820   1.979  -0.023  0.00  0.00    +0.180 C 
ATOM     15  C   LIG    1        0.002  -0.004   0.002  0.00  0.00    +0.030 A 
ENDROOT
TORSDOF 0
ENDMDL
MODEL        4
REMARK  Name = ZINC000001509324
REMARK                            x       y       z     vdW  Elec       q    Type
REMARK                         _______ _______ _______ _____ _____    ______ ____
ROOT
ATOM      1  C   LIG    1        0.002  -0.004   0.002  0.00  0.00    +0.230 A 
ATOM      2  C   LIG    1       -1.167  -0.693   0.004  0.00  0.00    -0.110 A 
ATOM      3  C   LIG    1       -1.191  -2.105  -0.004  0.00  0.00    +0.010 A 
ATOM      4  C   LIG    1       -2.413  -2.796  -0.002  0.00  0.00    -0.010 A 
ATOM      5  C   LIG    1       -2.421  -4.160  -0.009  0.00  0.00    +0.020 A 
ATOM      6  C   LIG    1       -1.233  -4.880  -0.019  0.00  0.00    -0.020 A 
ATOM      7  C   LIG    1       -0.028  -4.238  -0.021  0.00  0.00    +0.030 A 
ATOM      8  C   LIG    1        0.015  -2.842  -0.014  0.00  0.00    -0.080 A 
ATOM      9  C   LIG    1        1.294  -2.124  -0.017  0.00  0.00    -0.010 A 
ATOM     10  C   LIG    1        2.513  -2.805  -0.026  0.00  0.00    +0.020 A 
ATOM     11  C   LIG    1        3.682  -2.098  -0.029  0.00  0.00    +0.030 A 
ATOM     12  C   LIG    1        3.672  -0.709  -0.021  0.00  0.00    +0.010 A 
ATOM     13  C   LIG    1        2.496  -0.016  -0.012  0.00  0.00    +0.020 A 
ATOM     14  C   LIG    1        1.282  -0.712  -0.014  0.00  0.00    -0.070 A 
ENDROOT
BRANCH   1  15
ATOM     15  N   LIG    1       -0.017   1.389   0.010  0.00  0.00    -0.870 N 
ATOM     16  H   LIG    1       -0.863   1.863   0.016  0.00  0.00    +0.400 HD
ATOM     17  H   LIG    1        0.817   1.885   0.004  0.00  0.00    +0.400 HD
ENDBRANCH   1  15
TORSDOF 1
ENDMDL
MODEL        5
REMARK  Name = ZINC000001586329
REMARK                            x       y       z     vdW  Elec       q    Type
REMARK                         _______ _______ _______ _____ _____    ______ ____
ROOT
ATOM      1  C   LIG    1       -0.017   1.391   0.010  0.00  0.00    +0.000 A 
ATOM      2  C   LIG    1        1.128   2.120   0.003  0.00  0.00    +0.020 A 
ATOM      3  C   LIG    1        2.375   1.459  -0.013  0.00  0.00    -0.050 A 
ATOM      4  C   LIG    1        3.570   2.177  -0.020  0.00  0.00    +0.040 A 
ATOM      5  C   LIG    1        4.783   1.492  -0.035  0.00  0.00    -0.050 A 
ATOM      6  C   LIG    1        6.012   2.187  -0.041  0.00  0.00    +0.020 A 
ATOM      7  C   LIG    1        7.176   1.489  -0.055  0.00  0.00    +0.000 A 
ATOM      8  C   LIG    1        7.195   0.094  -0.064  0.00  0.00    +0.000 A 
ATOM      9  C   LIG    1        6.050  -0.636  -0.058  0.00  0.00    +0.020 A 
ATOM     10  C   LIG    1        4.803   0.026  -0.043  0.00  0.00    -0.050 A 
ATOM     11  C   LIG    1        3.608  -0.692  -0.036  0.00  0.00    +0.040 A 
ATOM     12  C   LIG    1        2.395  -0.007  -0.021  0.00  0.00    -0.050 A 
ATOM     13  C   LIG    1        1.166  -0.702  -0.013  0.00  0.00    +0.020 A 
ATOM     14  C   LIG    1        0.002  -0.004   0.002  0.00  0.00    +0.000 A 
ENDROOT
TORSDOF 0
ENDMDL
MODEL        6
REMARK  Name = ZINC000001661479
REMARK                            x       y       z     vdW  Elec       q    Type
REMARK                         _______ _______ _______ _____ _____    ______ ____
ROOT
ATOM      1  C   LIG    1        0.002  -0.004   0.002  0.00  0.00    +0.120 A 
ATOM      2  C   LIG    1        0.006  -0.711  -1.225  0.00  0.00    -0.080 A 
ATOM      3  C   LIG    1       -0.008  -0.037  -2.443  0.00  0.00    +0.060 A 
ATOM      4  C   LIG    1       -0.004  -0.764  -3.632  0.00  0.00    -0.050 A 
ATOM      5  C   LIG    1       -0.017  -0.114  -4.884  0.00  0.00    +0.030 A 
ATOM      6  C   LIG    1       -0.011  -0.853  -6.023  0.00  0.00    +0.000 A 
ATOM      7  C   LIG    1        0.007  -2.247  -5.993  0.00  0.00    +0.010 A 
ATOM      8  C   LIG    1        0.020  -2.936  -4.823  0.00  0.00    +0.020 A 
ATOM      9  C   LIG    1        0.016  -2.231  -3.600  0.00  0.00    -0.050 A 
ATOM     10  C   LIG    1        0.030  -2.905  -2.381  0.00  0.00    +0.050 A 
ATOM     11  C   LIG    1        0.026  -2.177  -1.192  0.00  0.00    -0.040 A 
ATOM     12  C   LIG    1        0.040  -2.828   0.060  0.00  0.00    +0.020 A 
ATOM     13  C   LIG    1        0.035  -2.091   1.202  0.00  0.00    +0.030 A 
ATOM     14  C   LIG    1        0.023  -0.698   1.176  0.00  0.00    -0.010 A 
ENDROOT
BRANCH   1  15
ATOM     15  O   LIG    1       -0.016   1.354   0.009  0.00  0.00    -0.490 OA
ATOM     16  H   LIG    1        0.862   1.759   0.003  0.00  0.00    +0.390 HD
ENDBRANCH   1  15
TORSDOF 1
ENDMDL
MODEL        7
REMARK  Name = ZINC000001661480
REMARK                            x       y       z     vdW  Elec       q    Type
REMARK                         _______ _______ _______ _____ _____    ______ ____
ROOT
ATOM      1  C   LIG    1        0.002  -0.004   0.002  0.00  0.00    +0.110 A 
ATOM      2  C   LIG    1        0.006  -0.690  -1.212  0.00  0.00    -0.010 A 
ATOM      3  C   LIG    1        0.025  -2.052  -1.246  0.00  0.00    +0.040 A 
ATOM      4  C   LIG    1        0.041  -2.782  -0.049  0.00  0.00    -0.060 A 
ATOM      5  C   LIG    1        0.061  -4.197  -0.062  0.00  0.00    +0.030 A 
ATOM      6  C   LIG    1        0.076  -4.911   1.081  0.00  0.00    +0.030 A 
ATOM      7  C   LIG    1        0.074  -4.279   2.347  0.00  0.00    -0.050 A 
ATOM      8  C   LIG    1        0.090  -5.030   3.530  0.00  0.00    +0.030 A 
ATOM      9  C   LIG    1        0.088  -4.394   4.737  0.00  0.00    +0.020 A 
ATOM     10  C   LIG    1        0.068  -3.006   4.812  0.00  0.00    +0.020 A 
ATOM     11  C   LIG    1        0.051  -2.246   3.677  0.00  0.00    +0.020 A 
ATOM     12  C   LIG    1        0.054  -2.868   2.428  0.00  0.00    -0.040 A 
ATOM     13  C   LIG    1        0.037  -2.091   1.184  0.00  0.00    -0.020 A 
ATOM     14  C   LIG    1        0.023  -0.696   1.197  0.00  0.00    -0.010 A 
ENDROOT
BRANCH   1  15
ATOM     15  O   LIG    1       -0.016   1.355   0.009  0.00  0.00    -0.500 OA
ATOM     16  H   LIG    1        0.862   1.760   0.003  0.00  0.00    +0.390 HD
ENDBRANCH   1  15
TORSDOF 1
ENDMDL
MODEL        8
REMARK  Name = ZINC000001594841
REMARK                            x       y       z     vdW  Elec       q    Type
REMARK                         _______ _______ _______ _____ _____    ______ ____
ROOT
ATOM      1  C   LIG    1        0.002  -0.004   0.002  0.00  0.00    +0.220 A 
ATOM      2  C   LIG    1       -1.201  -0.713   0.004  0.00  0.00    -0.060 A 
ATOM      3  C   LIG    1       -1.206  -2.077  -0.004  0.00  0.00    +0.070 A 
ATOM      4  C   LIG    1        0.002  -2.778  -0.014  0.00  0.00    -0.090 A 
ATOM      5  C   LIG    1        1.227  -2.073  -0.016  0.00  0.00    +0.000 A 
ATOM      6  C   LIG    1        2.450  -2.784  -0.025  0.00  0.00    +0.010 A 
ATOM      7  C   LIG    1        2.479  -4.132  -0.032  0.00  0.00    +0.040 A 
ATOM      8  C   LIG    1        1.289  -4.895  -0.030  0.00  0.00    -0.060 A 
ATOM      9  C   LIG    1        1.330  -6.296  -0.037  0.00  0.00    +0.030 A 
ATOM     10  C   LIG    1        0.167  -7.009  -0.035  0.00  0.00    -0.010 A 
ATOM     11  C   LIG    1       -1.064  -6.364  -0.026  0.00  0.00    +0.010 A 
ATOM     12  C   LIG    1       -1.139  -5.000  -0.019  0.00  0.00    +0.010 A 
ATOM     13  C   LIG    1        0.035  -4.244  -0.021  0.00  0.00    -0.020 A 
ATOM     14  C   LIG    1        1.211  -0.672  -0.013  0.00  0.00    -0.070 A 
ENDROOT
BRANCH   1  15
ATOM     15  N   LIG    1       -0.017   1.392   0.010  0.00  0.00    -0.880 N 
ATOM     16  H   LIG    1       -0.863   1.866   0.016  0.00  0.00    +0.400 HD
ATOM     17  H   LIG    1        0.817   1.889   0.004  0.00  0.00    +0.400 HD
ENDBRANCH   1  15
TORSDOF 1
ENDMDL
MODEL        9
REMARK  Name = ZINC000001577019
REMARK                            x       y       z     vdW  Elec       q    Type
REMARK                         _______ _______ _______ _____ _____    ______ ____
ROOT
ATOM      1  C   LIG    1        0.002  -0.004   0.002  0.00  0.00    +0.230 A 
ATOM      2  C   LIG    1       -1.200  -0.714   0.004  0.00  0.00    -0.060 A 
ATOM      3  C   LIG    1       -1.207  -2.077  -0.004  0.00  0.00    +0.080 A 
ATOM      4  C   LIG    1        0.004  -2.784  -0.013  0.00  0.00    -0.110 A 
ATOM      5  C   LIG    1        0.018  -4.198  -0.021  0.00  0.00    +0.040 A 
ATOM      6  C   LIG    1        1.175  -4.891  -0.030  0.00  0.00    -0.010 A 
ATOM      7  C   LIG    1        2.428  -4.235  -0.033  0.00  0.00    -0.040 A 
ATOM      8  C   LIG    1        3.625  -4.964  -0.043  0.00  0.00    +0.020 A 
ATOM      9  C   LIG    1        4.819  -4.305  -0.046  0.00  0.00    +0.010 A 
ATOM     10  C   LIG    1        4.869  -2.917  -0.039  0.00  0.00    +0.000 A 
ATOM     11  C   LIG    1        3.720  -2.177  -0.029  0.00  0.00    +0.030 A 
ATOM     12  C   LIG    1        2.482  -2.823  -0.026  0.00  0.00    -0.050 A 
ATOM     13  C   LIG    1        1.224  -2.069  -0.015  0.00  0.00    +0.020 A 
ATOM     14  C   LIG    1        1.212  -0.675  -0.013  0.00  0.00    -0.070 A 
ENDROOT
BRANCH   1  15
ATOM     15  N   LIG    1       -0.017   1.392   0.010  0.00  0.00    -0.870 N 
ATOM     16  H   LIG    1       -0.863   1.865   0.016  0.00  0.00    +0.400 HD
ATOM     17  H   LIG    1        0.817   1.888   0.004  0.00  0.00    +0.400 HD
ENDBRANCH   1  15
TORSDOF 1
ENDMDL
MODEL       10
REMARK  Name = ZINC000001593346
REMARK                            x       y       z     vdW  Elec       q    Type
REMARK                         _______ _______ _______ _____ _____    ______ ____
ROOT
ATOM      1  C   LIG    1        0.002  -0.004   0.002  0.00  0.00    +0.220 A 
ATOM      2  C   LIG    1       -1.212  -0.705   0.004  0.00  0.00    -0.040 A 
ATOM      3  C   LIG    1       -1.250  -2.060  -0.003  0.00  0.00    +0.070 A 
ATOM      4  C   LIG    1       -0.044  -2.794  -0.014  0.00  0.00    -0.090 A 
ATOM      5  C   LIG    1       -0.052  -4.188  -0.022  0.00  0.00    +0.060 A 
ATOM      6  C   LIG    1        1.156  -4.883  -0.032  0.00  0.00    -0.070 A 
ATOM      7  C   LIG    1        1.184  -6.294  -0.041  0.00  0.00    +0.030 A 
ATOM      8  C   LIG    1        2.378  -6.940  -0.052  0.00  0.00    -0.010 A 
ATOM      9  C   LIG    1        3.588  -6.245  -0.054  0.00  0.00    +0.010 A 
ATOM     10  C   LIG    1        3.633  -4.889  -0.045  0.00  0.00    +0.010 A 
ATOM     11  C   LIG    1        2.428  -4.153  -0.035  0.00  0.00    -0.030 A 
ATOM     12  C   LIG    1        2.437  -2.759  -0.025  0.00  0.00    +0.010 A 
ATOM     13  C   LIG    1        1.228  -2.064  -0.016  0.00  0.00    +0.010 A 
ATOM     14  C   LIG    1        1.202  -0.654  -0.013  0.00  0.00    -0.100 A 
ENDROOT
BRANCH   1  15
ATOM     15  N   LIG    1       -0.017   1.391   0.010  0.00  0.00    -0.880 N 
ATOM     16  H   LIG    1       -0.863   1.865   0.016  0.00  0.00    +0.400 HD
ATOM     17  H   LIG    1        0.817   1.888   0.004  0.00  0.00    +0.400 HD
ENDBRANCH   1  15
TORSDOF 1
ENDMDL
MODEL       11
REMARK  Name = ZINC000001689948
REMARK                            x       y       z     vdW  Elec       q    Type
REMARK                         _______ _______ _______ _____ _____    ______ ____
ROOT
ATOM      1  C   LIG    1        0.002  -0.004   0.002  0.00  0.00    +0.230 A 
ATOM      2  C   LIG    1       -1.212  -0.736   0.004  0.00  0.00    -0.090 A 
ATOM      3  C   LIG    1       -2.442  -0.086   0.013  0.00  0.00    +0.050 A 
ATOM      4  C   LIG    1       -3.618  -0.836   0.014  0.00  0.00    -0.060 A 
ATOM      5  C   LIG    1       -4.882  -0.210   0.022  0.00  0.00    +0.030 A 
ATOM      6  C   LIG    1       -6.006  -0.971   0.022  0.00  0.00    +0.000 A 
ATOM      7  C   LIG    1       -5.949  -2.365   0.015  0.00  0.00    +0.010 A 
ATOM      8  C   LIG    1       -4.766  -3.030   0.007  0.00  0.00    +0.020 A 
ATOM      9  C   LIG    1       -3.557  -2.301   0.006  0.00  0.00    -0.040 A 
ATOM     10  C   LIG    1       -2.325  -2.952  -0.003  0.00  0.00    +0.020 A 
ATOM     11  C   LIG    1       -1.150  -2.201  -0.004  0.00  0.00    -0.010 A 
ATOM     12  C   LIG    1        0.114  -2.827  -0.014  0.00  0.00    -0.040 A 
ATOM     13  C   LIG    1        1.242  -2.068  -0.015  0.00  0.00    +0.070 A 
ATOM     14  C   LIG    1        1.190  -0.677  -0.013  0.00  0.00    -0.110 A 
ENDROOT
BRANCH   1  15
ATOM     15  N   LIG    1       -0.017   1.388   0.010  0.00  0.00    -0.870 N 
ATOM     16  H   LIG    1       -0.863   1.862   0.016  0.00  0.00    +0.400 HD
ATOM     17  H   LIG    1        0.817   1.885   0.004  0.00  0.00    +0.400 HD
ENDBRANCH   1  15
TORSDOF 1
ENDMDL
MODEL       12
REMARK  Name = ZINC000001758142
REMARK                            x       y       z     vdW  Elec       q    Type
REMARK                         _______ _______ _______ _____ _____    ______ ____
ROOT
ATOM      1  C   LIG    1        0.002  -0.004   0.002  0.00  0.00    +0.110 A 
ATOM      2  C   LIG    1        0.005  -0.680  -1.224  0.00  0.00    -0.010 A 
ATOM      3  C   LIG    1        0.023  -2.035  -1.289  0.00  0.00    +0.040 A 
ATOM      4  C   LIG    1        0.039  -2.792  -0.097  0.00  0.00    -0.060 A 
ATOM      5  C   LIG    1        0.058  -4.185  -0.132  0.00  0.00    +0.060 A 
ATOM      6  C   LIG    1        0.074  -4.903   1.063  0.00  0.00    -0.050 A 
ATOM      7  C   LIG    1        0.094  -6.314   1.065  0.00  0.00    +0.020 A 
ATOM      8  C   LIG    1        0.110  -6.982   2.246  0.00  0.00    +0.000 A 
ATOM      9  C   LIG    1        0.106  -6.310   3.469  0.00  0.00    +0.010 A 
ATOM     10  C   LIG    1        0.087  -4.955   3.539  0.00  0.00    +0.020 A 
ATOM     11  C   LIG    1        0.071  -4.196   2.348  0.00  0.00    -0.050 A 
ATOM     12  C   LIG    1        0.051  -2.804   2.383  0.00  0.00    +0.040 A 
ATOM     13  C   LIG    1        0.036  -2.086   1.188  0.00  0.00    -0.040 A 
ATOM     14  C   LIG    1        0.022  -0.675   1.188  0.00  0.00    +0.000 A 
ENDROOT
BRANCH   1  15
ATOM     15  O   LIG    1       -0.016   1.355   0.009  0.00  0.00    -0.500 OA
ATOM     16  H   LIG    1        0.862   1.760   0.003  0.00  0.00    +0.390 HD
ENDBRANCH   1  15
TORSDOF 1
ENDMDL
MODEL       13
REMARK  Name = ZINC000002040924
REMARK                            x       y       z     vdW  Elec       q    Type
REMARK                         _______ _______ _______ _____ _____    ______ ____
ROOT
ATOM      1  C   LIG    1       -0.018   1.476   0.010  0.00  0.00    +0.030 A 
ATOM      2  C   LIG    1        1.072   2.228   0.004  0.00  0.00    +0.050 A 
ATOM      3  C   LIG    1        2.387   1.568  -0.012  0.00  0.00    +0.080 A 
ATOM      4  C   LIG    1        2.325   0.277  -0.018  0.00  0.00    -0.130 A 
ATOM      5  C   LIG    1        3.657  -0.263  -0.033  0.00  0.00    -0.130 A 
ATOM      6  C   LIG    1        4.511   0.707  -0.035  0.00  0.00    +0.080 A 
ATOM      7  C   LIG    1        5.915   0.265  -0.050  0.00  0.00    +0.050 A 
ATOM      8  C   LIG    1        6.174  -1.033  -0.060  0.00  0.00    +0.030 A 
ATOM      9  C   LIG    1        5.128  -2.082  -0.057  0.00  0.00    +0.020 A 
ATOM     10  C   LIG    1        3.870  -1.706  -0.044  0.00  0.00    -0.020 A 
ATOM     11  C   LIG    1        2.670  -2.554  -0.037  0.00  0.00    +0.040 A 
ATOM     12  C   LIG    1        1.438  -2.055  -0.022  0.00  0.00    +0.040 A 
ATOM     13  C   LIG    1        1.167  -0.610  -0.013  0.00  0.00    -0.020 A 
ATOM     14  N   LIG    1        3.753   1.887  -0.022  0.00  0.00    -0.530 N 
ATOM     15  H   LIG    1        3.982   2.473  -0.811  0.00  0.00    +0.380 HD
ATOM     16  C   LIG    1        0.002  -0.004   0.002  0.00  0.00    +0.020 A 
ENDROOT
TORSDOF 0
ENDMDL
MODEL       14
REMARK  Name = ZINC000003847076
REMARK                            x       y       z     vdW  Elec       q    Type
REMARK                         _______ _______ _______ _____ _____    ______ ____
ROOT
ATOM      1  C   LIG    1       -0.018   1.477   0.010  0.00  0.00    +0.000 A 
ATOM      2  C   LIG    1        1.223   1.892   0.001  0.00  0.00    +0.050 A 
ATOM      3  C   LIG    1        1.912   3.180   0.214  0.00  0.00    +0.070 A 
ATOM      4  C   LIG    1        3.149   3.155   0.688  0.00  0.00    +0.040 A 
ATOM      5  C   LIG    1        3.804   1.872   1.000  0.00  0.00    -0.090 A 
ATOM      6  C   LIG    1        5.007   1.822   1.702  0.00  0.00    +0.060 A 
ATOM      7  C   LIG    1        5.586   0.587   1.996  0.00  0.00    +0.000 A 
ATOM      8  C   LIG    1        4.968  -0.602   1.606  0.00  0.00    +0.060 A 
ATOM      9  C   LIG    1        3.761  -0.559   0.905  0.00  0.00    -0.080 A 
ATOM     10  C   LIG    1        3.075  -1.807   0.518  0.00  0.00    +0.040 A 
ATOM     11  C   LIG    1        1.836  -1.738   0.036  0.00  0.00    +0.070 A 
ATOM     12  C   LIG    1        1.254  -0.382  -0.058  0.00  0.00    +0.040 A 
ATOM     13  C   LIG    1        3.206   0.676   0.594  0.00  0.00    +0.140 A 
ATOM     14  N   LIG    1        2.037   0.766  -0.160  0.00  0.00    -0.390 N 
ATOM     15  C   LIG    1        0.002  -0.004   0.002  0.00  0.00    -0.010 A 
ENDROOT
TORSDOF 0
ENDMDL
MODEL       15
REMARK  Name = ZINC000006345376
REMARK                            x       y       z     vdW  Elec       q    Type
REMARK                         _______ _______ _______ _____ _____    ______ ____
ROOT
ATOM      1  C   LIG    1       -0.017   1.391   0.010  0.00  0.00    +0.040 A 
ATOM      2  C   LIG    1        1.115   2.137   0.003  0.00  0.00    +0.030 A 
ATOM      3  C   LIG    1        2.380   1.497  -0.013  0.00  0.00    +0.210 A 
ATOM      4  N   LIG    1        3.492   2.197  -0.019  0.00  0.00    -0.550 NA
ATOM      5  C   LIG    1        4.759   1.852  -0.033  0.00  0.00    +0.210 A 
ATOM      6  C   LIG    1        5.782   2.834  -0.037  0.00  0.00    +0.030 A 
ATOM      7  C   LIG    1        7.083   2.451  -0.051  0.00  0.00    +0.040 A 
ATOM      8  C   LIG    1        7.472   1.111  -0.062  0.00  0.00    +0.020 A 
ATOM      9  C   LIG    1        6.544   0.110  -0.059  0.00  0.00    +0.080 A 
ATOM     10  C   LIG    1        5.196   0.445  -0.044  0.00  0.00    -0.230 A 
ATOM     11  S   LIG    1        3.928  -0.728  -0.039  0.00  0.00    +0.240 S 
ATOM     12  C   LIG    1        2.373   0.024  -0.020  0.00  0.00    -0.230 A 
ATOM     13  C   LIG    1        1.182  -0.691  -0.013  0.00  0.00    +0.080 A 
ATOM     14  C   LIG    1        0.002  -0.004   0.002  0.00  0.00    +0.020 A 
ENDROOT
TORSDOF 0
ENDMDL
MODEL       16
REMARK  Name = ZINC000000967826
REMARK                            x       y       z     vdW  Elec       q    Type
REMARK                         _______ _______ _______ _____ _____    ______ ____
ROOT
ATOM      1  C   LIG    1        0.002  -0.004   0.002  0.00  0.00    +0.120 A 
ATOM      2  C   LIG    1        0.006  -0.704  -1.218  0.00  0.00    -0.070 A 
ATOM      3  C   LIG    1       -0.009  -0.013  -2.451  0.00  0.00    +0.030 A 
ATOM      4  C   LIG    1       -0.005  -0.673  -3.627  0.00  0.00    +0.030 A 
ATOM      5  C   LIG    1        0.014  -2.086  -3.680  0.00  0.00    -0.050 A 
ATOM      6  C   LIG    1        0.019  -2.764  -4.907  0.00  0.00    +0.030 A 
ATOM      7  C   LIG    1        0.038  -4.128  -4.928  0.00  0.00    +0.020 A 
ATOM      8  C   LIG    1        0.053  -4.859  -3.747  0.00  0.00    +0.020 A 
ATOM      9  C   LIG    1        0.049  -4.229  -2.534  0.00  0.00    +0.020 A 
ATOM     10  C   LIG    1        0.030  -2.834  -2.481  0.00  0.00    -0.040 A 
ATOM     11  C   LIG    1        0.026  -2.116  -1.202  0.00  0.00    -0.020 A 
ATOM     12  C   LIG    1        0.040  -2.799   0.015  0.00  0.00    +0.010 A 
ATOM     13  C   LIG    1        0.036  -2.092   1.196  0.00  0.00    +0.030 A 
ATOM     14  C   LIG    1        0.023  -0.704   1.191  0.00  0.00    -0.010 A 
ENDROOT
BRANCH   1  15
ATOM     15  O   LIG    1       -0.016   1.354   0.009  0.00  0.00    -0.490 OA
ATOM     16  H   LIG    1        0.862   1.759   0.003  0.00  0.00    +0.390 HD
ENDBRANCH   1  15
TORSDOF 1
ENDMDL
MODEL       17
REMARK  Name = ZINC000071786300
REMARK                            x       y       z     vdW  Elec       q    Type
REMARK                         _______ _______ _______ _____ _____    ______ ____
ROOT
ATOM      1  C   LIG    1       -0.017   1.382   0.010  0.00  0.00    +0.020 A 
ATOM      2  C   LIG    1        1.149   2.085   0.002  0.00  0.00    +0.010 A 
ATOM      3  C   LIG    1        2.390   1.422  -0.013  0.00  0.00    -0.050 A 
ATOM      4  C   LIG    1        3.576   2.177  -0.021  0.00  0.00    +0.010 A 
ATOM      5  C   LIG    1        4.792   1.564  -0.037  0.00  0.00    +0.020 A 
ATOM      6  C   LIG    1        4.878   0.180  -0.045  0.00  0.00    +0.000 A 
ATOM      7  C   LIG    1        3.733  -0.605  -0.038  0.00  0.00    -0.040 A 
ATOM      8  C   LIG    1        4.074  -2.030  -0.050  0.00  0.00    +0.020 C 
ATOM      9  C   LIG    1        3.268  -3.112  -0.048  0.00  0.00    +0.010 C 
ATOM     10  C   LIG    1        1.857  -3.165  -0.034  0.00  0.00    +0.010 C 
ATOM     11  C   LIG    1        0.971  -2.147  -0.019  0.00  0.00    +0.020 C 
ATOM     12  C   LIG    1        1.204  -0.701  -0.014  0.00  0.00    -0.040 A 
ATOM     13  C   LIG    1        2.443   0.003  -0.022  0.00  0.00    +0.000 A 
ATOM     14  C   LIG    1        0.002  -0.004   0.002  0.00  0.00    +0.000 A 
ENDROOT
TORSDOF 0
ENDMDL
MODEL       18
REMARK  Name = ZINC000001680651
REMARK                            x       y       z     vdW  Elec       q    Type
REMARK                         _______ _______ _______ _____ _____    ______ ____
ROOT
ATOM      1  C   LIG    1       -0.018   1.503   0.010  0.00  0.00    +0.130 C 
ATOM      2  C   LIG    1        0.002  -0.004   0.002  0.00  0.00    +0.150 A 
ATOM      3  C   LIG    1        0.005  -0.674  -1.215  0.00  0.00    -0.030 A 
ATOM      4  C   LIG    1        0.024  -2.045  -1.235  0.00  0.00    +0.080 A 
ATOM      5  C   LIG    1        0.040  -2.723  -0.013  0.00  0.00    -0.100 A 
ATOM      6  C   LIG    1        0.061  -4.186   0.054  0.00  0.00    -0.030 A 
ATOM      7  C   LIG    1        0.067  -4.972  -1.100  0.00  0.00    +0.020 A 
ATOM      8  C   LIG    1        0.087  -6.333  -0.992  0.00  0.00    +0.020 A 
ATOM      9  C   LIG    1        0.102  -6.947   0.255  0.00  0.00    +0.010 A 
ATOM     10  C   LIG    1        0.097  -6.206   1.401  0.00  0.00    +0.030 A 
ATOM     11  C   LIG    1        0.076  -4.807   1.324  0.00  0.00    -0.060 A 
ATOM     12  C   LIG    1        0.071  -4.012   2.494  0.00  0.00    +0.060 A 
ATOM     13  C   LIG    1        0.052  -2.666   2.430  0.00  0.00    +0.040 A 
ATOM     14  C   LIG    1        0.035  -1.984   1.191  0.00  0.00    +0.150 A 
ATOM     15  N   LIG    1        0.022  -0.650   1.145  0.00  0.00    -0.470 NA
ENDROOT
TORSDOF 0
ENDMDL
MODEL       19
REMARK  Name = ZINC000037866103
REMARK                            x       y       z     vdW  Elec       q    Type
REMARK                         _______ _______ _______ _____ _____    ______ ____
ROOT
ATOM      1  C   LIG    1       -0.018   1.503   0.010  0.00  0.00    +0.120 C 
ATOM      2  C   LIG    1        0.002  -0.004   0.002  0.00  0.00    -0.020 A 
ATOM      3  C   LIG    1        0.006  -0.718  -1.207  0.00  0.00    -0.100 A 
ATOM      4  C   LIG    1       -0.009  -0.047  -2.451  0.00  0.00    +0.030 A 
ATOM      5  C   LIG    1       -0.004  -0.727  -3.616  0.00  0.00    +0.030 A 
ATOM      6  C   LIG    1        0.015  -2.141  -3.642  0.00  0.00    -0.040 A 
ATOM      7  C   LIG    1        0.021  -2.839  -4.858  0.00  0.00    +0.020 A 
ATOM      8  C   LIG    1        0.040  -4.203  -4.855  0.00  0.00    +0.020 A 
ATOM      9  C   LIG    1        0.054  -4.915  -3.661  0.00  0.00    +0.010 A 
ATOM     10  C   LIG    1        0.049  -4.264  -2.461  0.00  0.00    +0.060 A 
ATOM     11  C   LIG    1        0.030  -2.868  -2.431  0.00  0.00    -0.040 A 
ATOM     12  C   LIG    1        0.026  -2.130  -1.163  0.00  0.00    +0.160 A 
ATOM     13  N   LIG    1        0.039  -2.763   0.005  0.00  0.00    -0.480 NA
ATOM     14  C   LIG    1        0.036  -2.102   1.142  0.00  0.00    +0.280 A 
ATOM     15  C   LIG    1        0.023  -0.713   1.173  0.00  0.00    -0.040 A 
ENDROOT
TORSDOF 0
ENDMDL
MODEL       20
REMARK  Name = ZINC000001671624
REMARK                            x       y       z     vdW  Elec       q    Type
REMARK                         _______ _______ _______ _____ _____    ______ ____
ROOT
ATOM      1  C   LIG    1        0.002  -0.004   0.002  0.00  0.00    +0.130 A 
ATOM      2  C   LIG    1        0.006  -0.703  -1.210  0.00  0.00    -0.080 A 
ATOM      3  C   LIG    1       -0.009  -0.021  -2.444  0.00  0.00    +0.030 A 
ATOM      4  C   LIG    1       -0.004  -0.730  -3.602  0.00  0.00    +0.000 A 
ATOM      5  C   LIG    1        0.015  -2.124  -3.608  0.00  0.00    +0.010 A 
ATOM      6  C   LIG    1        0.030  -2.842  -2.456  0.00  0.00    +0.020 A 
ATOM      7  C   LIG    1        0.026  -2.169  -1.216  0.00  0.00    -0.040 A 
ATOM      8  C   LIG    1        0.042  -2.875  -0.014  0.00  0.00    +0.040 A 
ATOM      9  C   LIG    1        0.038  -2.182   1.196  0.00  0.00    -0.040 A 
ATOM     10  C   LIG    1        0.054  -2.869   2.429  0.00  0.00    +0.020 A 
ATOM     11  C   LIG    1        0.051  -2.163   3.589  0.00  0.00    +0.010 A 
ATOM     12  C   LIG    1        0.031  -0.769   3.598  0.00  0.00    +0.000 A 
ATOM     13  C   LIG    1        0.015  -0.047   2.447  0.00  0.00    +0.030 A 
ATOM     14  C   LIG    1        0.023  -0.716   1.207  0.00  0.00    -0.080 A 
ENDROOT
BRANCH   1  15
ATOM     15  O   LIG    1       -0.016   1.352   0.009  0.00  0.00    -0.490 OA
ATOM     16  H   LIG    1        0.862   1.758   0.003  0.00  0.00    +0.390 HD
ENDBRANCH   1  15
TORSDOF 1
ENDMDL
MODEL       21
REMARK  Name = ZINC000001507976
REMARK                            x       y       z     vdW  Elec       q    Type
REMARK                         _______ _______ _______ _____ _____    ______ ____
ROOT
ATOM      1  C   LIG    1       -0.018   1.503   0.010  0.00  0.00    +0.140 C 
ATOM      2  C   LIG    1        0.002  -0.004   0.002  0.00  0.00    +0.200 A 
ATOM      3  N   LIG    1        0.005  -0.632  -1.139  0.00  0.00    -0.490 NA
ATOM      4  C   LIG    1        0.023  -1.971  -1.246  0.00  0.00    +0.120 A 
ATOM      5  C   LIG    1        0.026  -2.592  -2.503  0.00  0.00    +0.050 A 
ATOM      6  C   LIG    1        0.044  -3.953  -2.589  0.00  0.00    +0.020 A 
ATOM      7  C   LIG    1        0.060  -4.742  -1.445  0.00  0.00    +0.020 A 
ATOM      8  C   LIG    1        0.057  -4.169  -0.204  0.00  0.00    +0.030 A 
ATOM      9  C   LIG    1        0.039  -2.780  -0.086  0.00  0.00    -0.090 A 
ATOM     10  C   LIG    1        0.036  -2.114   1.220  0.00  0.00    -0.010 A 
ATOM     11  C   LIG    1        0.052  -2.819   2.421  0.00  0.00    +0.020 A 
ATOM     12  C   LIG    1        0.049  -2.134   3.604  0.00  0.00    +0.040 A 
ATOM     13  C   LIG    1        0.030  -0.745   3.622  0.00  0.00    +0.010 A 
ATOM     14  C   LIG    1        0.015  -0.027   2.461  0.00  0.00    +0.060 A 
ATOM     15  C   LIG    1        0.023  -0.698   1.233  0.00  0.00    -0.110 A 
ENDROOT
TORSDOF 0
ENDMDL
MODEL       22
REMARK  Name = ZINC000004115667
REMARK                            x       y       z     vdW  Elec       q    Type
REMARK                         _______ _______ _______ _____ _____    ______ ____
ROOT
ATOM      1  C   LIG    1       -0.018   1.503   0.010  0.00  0.00    +0.130 C 
ATOM      2  C   LIG    1        0.002  -0.004   0.002  0.00  0.00    +0.000 A 
ATOM      3  C   LIG    1        0.006  -0.719  -1.198  0.00  0.00    -0.110 A 
ATOM      4  C   LIG    1       -0.008  -0.059  -2.444  0.00  0.00    +0.040 A 
ATOM      5  C   LIG    1       -0.003  -0.791  -3.588  0.00  0.00    +0.010 A 
ATOM      6  C   LIG    1        0.016  -2.185  -3.563  0.00  0.00    +0.040 A 
ATOM      7  C   LIG    1        0.030  -2.881  -2.397  0.00  0.00    +0.040 A 
ATOM      8  C   LIG    1        0.026  -2.185  -1.169  0.00  0.00    +0.160 A 
ATOM      9  N   LIG    1        0.040  -2.841  -0.014  0.00  0.00    -0.470 NA
ATOM     10  C   LIG    1        0.037  -2.197   1.149  0.00  0.00    +0.160 A 
ATOM     11  C   LIG    1        0.052  -2.906   2.369  0.00  0.00    +0.040 A 
ATOM     12  C   LIG    1        0.049  -2.224   3.543  0.00  0.00    +0.040 A 
ATOM     13  C   LIG    1        0.029  -0.830   3.583  0.00  0.00    +0.010 A 
ATOM     14  C   LIG    1        0.013  -0.086   2.447  0.00  0.00    +0.040 A 
ATOM     15  C   LIG    1        0.023  -0.732   1.194  0.00  0.00    -0.110 A 
ENDROOT
TORSDOF 0
ENDMDL
MODEL       23
REMARK  Name = ZINC000004181315
REMARK                            x       y       z     vdW  Elec       q    Type
REMARK                         _______ _______ _______ _____ _____    ______ ____
ROOT
ATOM      1  C   LIG    1       -0.018   1.503   0.010  0.00  0.00    +0.100 C 
ATOM      2  C   LIG    1        0.002  -0.004   0.002  0.00  0.00    -0.060 A 
ATOM      3  C   LIG    1        0.006  -0.707  -1.219  0.00  0.00    -0.110 A 
ATOM      4  C   LIG    1       -0.008  -0.035  -2.444  0.00  0.00    +0.110 A 
ATOM      5  C   LIG    1       -0.003  -0.805  -3.610  0.00  0.00    -0.110 A 
ATOM      6  C   LIG    1       -0.016  -0.204  -4.885  0.00  0.00    +0.040 A 
ATOM      7  C   LIG    1       -0.010  -0.988  -5.994  0.00  0.00    +0.010 A 
ATOM      8  C   LIG    1        0.009  -2.380  -5.904  0.00  0.00    +0.040 A 
ATOM      9  C   LIG    1        0.022  -3.020  -4.707  0.00  0.00    +0.040 A 
ATOM     10  C   LIG    1        0.017  -2.268  -3.513  0.00  0.00    +0.160 A 
ATOM     11  N   LIG    1        0.030  -2.870  -2.328  0.00  0.00    -0.470 NA
ATOM     12  C   LIG    1        0.026  -2.173  -1.197  0.00  0.00    +0.160 A 
ATOM     13  C   LIG    1        0.041  -2.825   0.055  0.00  0.00    +0.030 A 
ATOM     14  C   LIG    1        0.036  -2.089   1.196  0.00  0.00    +0.040 A 
ATOM     15  C   LIG    1        0.023  -0.695   1.172  0.00  0.00    +0.010 A 
ENDROOT
TORSDOF 0
ENDMDL
MODEL       24
REMARK  Name = ZINC000004168081
REMARK                            x       y       z     vdW  Elec       q    Type
REMARK                         _______ _______ _______ _____ _____    ______ ____
ROOT
ATOM      1  C   LIG    1       -0.018   1.503   0.010  0.00  0.00    +0.110 C 
ATOM      2  C   LIG    1        0.002  -0.004   0.002  0.00  0.00    -0.070 A 
ATOM      3  C   LIG    1        0.006  -0.680  -1.175  0.00  0.00    +0.030 A 
ATOM      4  C   LIG    1        0.025  -2.074  -1.224  0.00  0.00    +0.020 A 
ATOM      5  C   LIG    1        0.041  -2.824  -0.092  0.00  0.00    +0.030 A 
ATOM      6  C   LIG    1        0.038  -2.185   1.165  0.00  0.00    -0.100 A 
ATOM      7  C   LIG    1        0.055  -2.920   2.353  0.00  0.00    +0.110 A 
ATOM      8  C   LIG    1        0.051  -2.211   3.557  0.00  0.00    -0.110 A 
ATOM      9  C   LIG    1        0.068  -2.878   4.799  0.00  0.00    +0.040 A 
ATOM     10  C   LIG    1        0.065  -2.152   5.948  0.00  0.00    +0.010 A 
ATOM     11  C   LIG    1        0.045  -0.758   5.930  0.00  0.00    +0.040 A 
ATOM     12  C   LIG    1        0.028  -0.057   4.768  0.00  0.00    +0.040 A 
ATOM     13  C   LIG    1        0.031  -0.746   3.536  0.00  0.00    +0.160 A 
ATOM     14  N   LIG    1        0.015  -0.083   2.384  0.00  0.00    -0.460 NA
ATOM     15  C   LIG    1        0.023  -0.720   1.218  0.00  0.00    +0.160 A 
ENDROOT
TORSDOF 0
ENDMDL
