REMARK  Name = ZINC000004115667
REMARK                            x       y       z     vdW  Elec       q    Type
REMARK                         _______ _______ _______ _____ _____    ______ ____
ROOT
ATOM      1  C   LIG    1       -0.018   1.503   0.010  0.00  0.00    +0.160 C 
ATOM      2  C   LIG    1        0.002  -0.004   0.002  0.00  0.00    +0.130 A 
ATOM      3  C   LIG    1        0.006  -0.719  -1.198  0.00  0.00    -0.120 A 
ATOM      4  C   LIG    1       -0.008  -0.059  -2.444  0.00  0.00    +0.120 A 
ATOM      5  C   LIG    1       -0.003  -0.791  -3.588  0.00  0.00    +0.030 A 
ATOM      6  C   LIG    1        0.016  -2.185  -3.563  0.00  0.00    +0.160 A 
ATOM      7  C   LIG    1        0.030  -2.881  -2.397  0.00  0.00    -0.010 A 
ATOM      8  C   LIG    1        0.026  -2.185  -1.169  0.00  0.00    +0.210 A 
ATOM      9  N   LIG    1        0.040  -2.841  -0.014  0.00  0.00    -0.490 N 
ATOM     10  C   LIG    1        0.037  -2.197   1.149  0.00  0.00    +0.210 A 
ATOM     11  C   LIG    1        0.053  -2.906   2.369  0.00  0.00    -0.010 A 
ATOM     12  C   LIG    1        0.050  -2.224   3.543  0.00  0.00    +0.160 A 
ATOM     13  C   LIG    1        0.031  -0.830   3.583  0.00  0.00    +0.030 A 
ATOM     14  C   LIG    1        0.014  -0.086   2.447  0.00  0.00    +0.120 A 
ATOM     15  H   LIG    1        0.053  -3.811  -0.019  0.00  0.00    +0.440 HD
ATOM     16  C   LIG    1        0.023  -0.732   1.194  0.00  0.00    -0.120 A 
ENDROOT
TORSDOF 0
