MODEL        1
REMARK  Name = ZINC000044138538
REMARK                            x       y       z     vdW  Elec       q    Type
REMARK                         _______ _______ _______ _____ _____    ______ ____
ROOT
ATOM      1  C   LIG    1       -0.018   1.503   0.010  0.00  0.00    +0.100 C 
ATOM      2  C   LIG    1        0.002  -0.004   0.002  0.00  0.00    -0.040 A 
ATOM      3  C   LIG    1       -0.099  -0.700  -1.204  0.00  0.00    -0.040 A 
ATOM      4  C   LIG    1       -0.079  -2.113  -1.202  0.00  0.00    -0.040 A 
ATOM      5  C   LIG    1       -0.182  -2.822  -2.421  0.00  0.00    +0.030 A 
ATOM      6  C   LIG    1       -0.301  -2.178  -3.599  0.00  0.00    +0.030 A 
ATOM      7  C   LIG    1       -0.327  -0.766  -3.667  0.00  0.00    -0.100 A 
ATOM      8  C   LIG    1       -0.450  -0.102  -4.897  0.00  0.00    +0.080 A 
ATOM      9  C   LIG    1       -0.469   1.267  -4.896  0.00  0.00    -0.030 A 
ATOM     10  C   LIG    1       -0.368   1.959  -3.695  0.00  0.00    +0.280 A 
ATOM     11  N   LIG    1       -0.253   1.330  -2.547  0.00  0.00    -0.470 NA
ATOM     12  C   LIG    1        0.044  -2.792   0.019  0.00  0.00    +0.010 A 
ATOM     13  C   LIG    1        0.142  -2.085   1.181  0.00  0.00    +0.030 A 
ATOM     14  C   LIG    1       -0.228   0.002  -2.485  0.00  0.00    +0.160 A 
ATOM     15  C   LIG    1        0.126  -0.695   1.174  0.00  0.00    +0.000 A 
ENDROOT
TORSDOF 0
ENDMDL
MODEL        2
REMARK  Name = ZINC000001714567
REMARK                            x       y       z     vdW  Elec       q    Type
REMARK                         _______ _______ _______ _____ _____    ______ ____
ROOT
ATOM      1  C   LIG    1        0.002  -0.004   0.002  0.00  0.00    +0.260 A 
ATOM      2  C   LIG    1       -1.198  -0.728   0.004  0.00  0.00    -0.130 A 
ATOM      3  C   LIG    1       -2.444  -0.070   0.013  0.00  0.00    +0.030 A 
ATOM      4  C   LIG    1       -3.589  -0.801   0.014  0.00  0.00    -0.020 A 
ATOM      5  C   LIG    1       -3.568  -2.195   0.006  0.00  0.00    +0.020 A 
ATOM      6  C   LIG    1       -2.401  -2.891  -0.002  0.00  0.00    +0.010 A 
ATOM      7  C   LIG    1       -1.175  -2.193  -0.004  0.00  0.00    +0.010 A 
ATOM      8  C   LIG    1        0.041  -2.876  -0.013  0.00  0.00    -0.040 A 
ATOM      9  C   LIG    1        1.238  -2.160  -0.015  0.00  0.00    +0.010 A 
ATOM     10  C   LIG    1        2.483  -2.825  -0.025  0.00  0.00    +0.010 A 
ATOM     11  C   LIG    1        3.630  -2.098  -0.028  0.00  0.00    +0.020 A 
ATOM     12  C   LIG    1        3.614  -0.703  -0.019  0.00  0.00    -0.020 A 
ATOM     13  C   LIG    1        2.449  -0.003  -0.009  0.00  0.00    +0.030 A 
ATOM     14  C   LIG    1        1.222  -0.695  -0.013  0.00  0.00    -0.130 A 
ENDROOT
BRANCH   1  15
ATOM     15  N   LIG    1       -0.017   1.383   0.010  0.00  0.00    -0.860 N 
ATOM     16  H   LIG    1       -0.863   1.857   0.016  0.00  0.00    +0.400 HD
ATOM     17  H   LIG    1        0.817   1.880   0.004  0.00  0.00    +0.400 HD
ENDBRANCH   1  15
TORSDOF 1
ENDMDL
MODEL        3
REMARK  Name = ZINC000001641009
REMARK                            x       y       z     vdW  Elec       q    Type
REMARK                         _______ _______ _______ _____ _____    ______ ____
ROOT
ATOM      1  C   LIG    1        0.002  -0.004   0.002  0.00  0.00    +0.110 A 
ATOM      2  C   LIG    1        0.006  -0.688  -1.213  0.00  0.00    -0.010 A 
ATOM      3  C   LIG    1        0.025  -2.053  -1.245  0.00  0.00    +0.040 A 
ATOM      4  C   LIG    1        0.040  -2.777  -0.051  0.00  0.00    -0.050 A 
ATOM      5  C   LIG    1        0.037  -2.095   1.187  0.00  0.00    -0.030 A 
ATOM      6  C   LIG    1        0.052  -2.829   2.396  0.00  0.00    +0.020 A 
ATOM      7  C   LIG    1        0.070  -4.176   2.400  0.00  0.00    +0.030 A 
ATOM      8  C   LIG    1        0.074  -4.918   1.196  0.00  0.00    -0.050 A 
ATOM      9  C   LIG    1        0.093  -6.319   1.211  0.00  0.00    +0.030 A 
ATOM     10  C   LIG    1        0.097  -7.010   0.035  0.00  0.00    +0.010 A 
ATOM     11  C   LIG    1        0.083  -6.342  -1.184  0.00  0.00    +0.020 A 
ATOM     12  C   LIG    1        0.065  -4.977  -1.233  0.00  0.00    +0.020 A 
ATOM     13  C   LIG    1        0.060  -4.243  -0.046  0.00  0.00    -0.040 A 
ATOM     14  C   LIG    1        0.023  -0.694   1.196  0.00  0.00    +0.010 A 
ENDROOT
BRANCH   1  15
ATOM     15  O   LIG    1       -0.016   1.355   0.009  0.00  0.00    -0.500 OA
ATOM     16  H   LIG    1        0.862   1.760   0.003  0.00  0.00    +0.390 HD
ENDBRANCH   1  15
TORSDOF 1
ENDMDL
MODEL        4
REMARK  Name = ZINC000002558836
REMARK                            x       y       z     vdW  Elec       q    Type
REMARK                         _______ _______ _______ _____ _____    ______ ____
ROOT
ATOM      1  C   LIG    1        0.002  -0.004   0.002  0.00  0.00    +0.120 A 
ATOM      2  C   LIG    1        0.006  -0.703  -1.212  0.00  0.00    -0.060 A 
ATOM      3  C   LIG    1        0.025  -2.116  -1.206  0.00  0.00    -0.040 A 
ATOM      4  C   LIG    1        0.028  -2.825  -2.430  0.00  0.00    +0.020 A 
ATOM      5  C   LIG    1        0.013  -2.182  -3.615  0.00  0.00    +0.030 A 
ATOM      6  C   LIG    1       -0.007  -0.770  -3.687  0.00  0.00    -0.050 A 
ATOM      7  C   LIG    1       -0.022  -0.111  -4.925  0.00  0.00    +0.020 A 
ATOM      8  C   LIG    1       -0.041   1.252  -4.966  0.00  0.00    +0.000 A 
ATOM      9  C   LIG    1       -0.045   2.002  -3.795  0.00  0.00    +0.010 A 
ATOM     10  C   LIG    1       -0.030   1.390  -2.574  0.00  0.00    +0.040 A 
ATOM     11  C   LIG    1        0.041  -2.796   0.020  0.00  0.00    +0.020 A 
ATOM     12  C   LIG    1        0.037  -2.095   1.190  0.00  0.00    +0.030 A 
ATOM     13  C   LIG    1       -0.010  -0.004  -2.499  0.00  0.00    -0.040 A 
ATOM     14  C   LIG    1        0.023  -0.707   1.191  0.00  0.00    -0.010 A 
ENDROOT
BRANCH   1  15
ATOM     15  O   LIG    1       -0.016   1.354   0.009  0.00  0.00    -0.490 OA
ATOM     16  H   LIG    1        0.862   1.759   0.003  0.00  0.00    +0.390 HD
ENDBRANCH   1  15
TORSDOF 1
ENDMDL
MODEL        5
REMARK  Name = ZINC000013283035
REMARK                            x       y       z     vdW  Elec       q    Type
REMARK                         _______ _______ _______ _____ _____    ______ ____
ROOT
ATOM      1  C   LIG    1       -0.018   1.503   0.010  0.00  0.00    +0.100 C 
ATOM      2  C   LIG    1        0.002  -0.004   0.002  0.00  0.00    -0.020 A 
ATOM      3  C   LIG    1       -0.125  -0.779  -1.148  0.00  0.00    -0.090 A 
ATOM      4  C   LIG    1       -0.513  -0.271  -2.466  0.00  0.00    -0.020 A 
ATOM      5  C   LIG    1       -1.181   0.934  -2.675  0.00  0.00    +0.010 A 
ATOM      6  C   LIG    1       -1.384   1.407  -3.942  0.00  0.00    +0.020 A 
ATOM      7  C   LIG    1       -0.990   0.668  -5.050  0.00  0.00    +0.010 A 
ATOM      8  C   LIG    1       -0.451  -0.574  -4.887  0.00  0.00    +0.030 A 
ATOM      9  C   LIG    1       -0.262  -1.088  -3.598  0.00  0.00    -0.060 A 
ATOM     10  C   LIG    1        0.118  -2.439  -3.423  0.00  0.00    +0.060 A 
ATOM     11  C   LIG    1        0.252  -2.968  -2.192  0.00  0.00    +0.040 A 
ATOM     12  C   LIG    1        0.092  -2.178  -1.031  0.00  0.00    +0.150 A 
ATOM     13  N   LIG    1        0.146  -2.752   0.172  0.00  0.00    -0.480 NA
ATOM     14  C   LIG    1        0.173  -2.032   1.268  0.00  0.00    +0.280 A 
ATOM     15  C   LIG    1        0.129  -0.649   1.214  0.00  0.00    -0.040 A 
ENDROOT
TORSDOF 0
ENDMDL
MODEL        6
REMARK  Name = ZINC000004806361
REMARK                            x       y       z     vdW  Elec       q    Type
REMARK                         _______ _______ _______ _____ _____    ______ ____
ROOT
ATOM      1  C   LIG    1       -0.018   1.503   0.010  0.00  0.00    +0.110 C 
ATOM      2  C   LIG    1        0.002  -0.004   0.002  0.00  0.00    -0.130 A 
ATOM      3  C   LIG    1        0.006  -0.695  -1.203  0.00  0.00    +0.280 A 
ATOM      4  N   LIG    1        0.024  -2.007  -1.245  0.00  0.00    -0.470 NA
ATOM      5  C   LIG    1        0.039  -2.740  -0.130  0.00  0.00    +0.140 A 
ATOM      6  C   LIG    1        0.059  -4.153  -0.191  0.00  0.00    +0.050 A 
ATOM      7  C   LIG    1        0.075  -4.907   0.926  0.00  0.00    +0.050 A 
ATOM      8  C   LIG    1        0.073  -4.321   2.213  0.00  0.00    -0.050 A 
ATOM      9  C   LIG    1        0.090  -5.114   3.369  0.00  0.00    +0.030 A 
ATOM     10  C   LIG    1        0.088  -4.520   4.597  0.00  0.00    +0.010 A 
ATOM     11  C   LIG    1        0.069  -3.136   4.721  0.00  0.00    +0.020 A 
ATOM     12  C   LIG    1        0.052  -2.336   3.614  0.00  0.00    +0.020 A 
ATOM     13  C   LIG    1        0.054  -2.913   2.343  0.00  0.00    -0.030 A 
ATOM     14  C   LIG    1        0.037  -2.096   1.128  0.00  0.00    -0.090 A 
ATOM     15  C   LIG    1        0.023  -0.699   1.184  0.00  0.00    +0.080 A 
ENDROOT
TORSDOF 0
ENDMDL
