REMARK  Name = ZINC000368027195
REMARK                            x       y       z     vdW  Elec       q    Type
REMARK                         _______ _______ _______ _____ _____    ______ ____
ROOT
ATOM      1  C   LIG    1       -0.016   1.351   0.009  0.00  0.00    +0.060 A 
ATOM      2  C   LIG    1       -1.234   2.032   0.031  0.00  0.00    +0.270 A 
ATOM      3  C   LIG    1       -1.264   3.410   0.038  0.00  0.00    +0.200 A 
ATOM      4  C   LIG    1       -0.076   4.144   0.025  0.00  0.00    +0.150 A 
ATOM      5  C   LIG    1        1.163   3.476   0.004  0.00  0.00    +0.240 A 
ATOM      6  C   LIG    1        1.193   2.071   0.002  0.00  0.00    +0.090 A 
ENDROOT
BRANCH   5   7
ATOM      7  N   LIG    1        2.329   4.189  -0.009  0.00  0.00    -0.240 NA
ATOM      8  N   LIG    1        2.297   5.429  -0.002  0.00  0.00    -0.190 NA
ATOM      9  H   LIG    1        3.124   5.935  -0.011  0.00  0.00    +0.410 HD
ENDBRANCH   5   7
BRANCH   4  10
ATOM     10  N   LIG    1       -0.117   5.511   0.032  0.00  0.00    -0.170 NA
ATOM     11  N   LIG    1       -1.208   6.099   0.051  0.00  0.00    -0.270 NA
ATOM     12  H   LIG    1       -1.237   7.069   0.057  0.00  0.00    +0.410 HD
ENDBRANCH   4  10
BRANCH   1  14
ATOM     13  N   LIG    1        0.016  -1.038  -0.004  0.00  0.00    +0.400 NA
ATOM     14  N   LIG    1        0.002  -0.004   0.002  0.00  0.00    +0.110 NA
ENDBRANCH   1  14
BRANCH   6  15
ATOM     15  N   LIG    1        2.378   1.415  -0.018  0.00  0.00    +0.120 NA
ATOM     16  N   LIG    1        3.282   0.914  -0.033  0.00  0.00    +0.400 NA
ENDBRANCH   6  15
TORSDOF 4
