MODEL        1
REMARK  Name = ZINC000012359059
REMARK                            x       y       z     vdW  Elec       q    Type
REMARK                         _______ _______ _______ _____ _____    ______ ____
ROOT
ATOM      1  O   LIG    1        0.002  -0.004   0.010  0.00  0.00    -0.480 OA
ATOM      2  C   LIG    1       -0.015   1.219   0.015  0.00  0.00    +0.390 C 
ATOM      3  C   LIG    1       -1.246   1.906   0.046  0.00  0.00    -0.070 C 
ATOM      4  C   LIG    1       -1.267   3.262   0.051  0.00  0.00    +0.140 C 
ATOM      5  C   LIG    1       -0.052   3.987   0.026  0.00  0.00    +0.010 C 
ATOM      6  C   LIG    1        1.182   3.295  -0.004  0.00  0.00    +0.040 C 
ATOM      7  N   LIG    1       -0.070   5.317   0.032  0.00  0.00    -0.130 NA
ATOM      8  C   LIG    1        1.197   1.939  -0.005  0.00  0.00    -0.050 C 
ENDROOT
BRANCH   7   9
ATOM      9  N   LIG    1        1.035   5.977   0.118  0.00  0.00    -0.470 N 
ATOM     10  H   LIG    1        1.883   5.506   0.103  0.00  0.00    +0.390 HD
BRANCH   9  11
ATOM     11  C   LIG    1        1.011   7.365   0.231  0.00  0.00    +0.150 A 
ATOM     12  C   LIG    1       -0.204   8.041   0.258  0.00  0.00    +0.010 A 
ATOM     13  C   LIG    1       -0.224   9.417   0.370  0.00  0.00    +0.040 A 
ATOM     14  C   LIG    1        0.963  10.123   0.455  0.00  0.00    +0.000 A 
ATOM     15  C   LIG    1        2.173   9.454   0.428  0.00  0.00    +0.040 A 
ATOM     16  C   LIG    1        2.201   8.078   0.323  0.00  0.00    -0.020 A 
ENDBRANCH   9  11
ENDBRANCH   7   9
TORSDOF 2
ENDMDL
MODEL        2
REMARK  Name = ZINC000018117704
REMARK                            x       y       z     vdW  Elec       q    Type
REMARK                         _______ _______ _______ _____ _____    ______ ____
ROOT
ATOM      1  O   LIG    1       -0.022   0.042  -0.338  0.00  0.00    -0.320 OA
ATOM      2  N   LIG    1       -0.014   1.213  -0.004  0.00  0.00    +0.150 N 
ENDROOT
BRANCH   2   3
ATOM      3  C   LIG    1       -1.174   1.826   0.358  0.00  0.00    -0.010 A 
ATOM      4  C   LIG    1       -1.169   3.174   0.737  0.00  0.00    +0.100 A 
ATOM      5  C   LIG    1       -2.349   3.787   1.102  0.00  0.00    +0.010 A 
ATOM      6  C   LIG    1       -3.535   3.074   1.094  0.00  0.00    +0.080 A 
ATOM      7  C   LIG    1       -3.549   1.741   0.720  0.00  0.00    +0.030 A 
ATOM      8  C   LIG    1       -2.380   1.113   0.347  0.00  0.00    +0.100 A 
ENDBRANCH   2   3
BRANCH   2   9
ATOM      9  N   LIG    1        1.094   1.874   0.002  0.00  0.00    -0.330 NA
BRANCH   9  10
ATOM     10  C   LIG    1        2.311   1.196   0.092  0.00  0.00    +0.070 A 
ATOM     11  C   LIG    1        2.366  -0.059   0.686  0.00  0.00    +0.010 A 
ATOM     12  C   LIG    1        3.572  -0.727   0.773  0.00  0.00    +0.020 A 
ATOM     13  C   LIG    1        4.723  -0.149   0.270  0.00  0.00    +0.010 A 
ATOM     14  C   LIG    1        4.671   1.101  -0.322  0.00  0.00    +0.020 A 
ATOM     15  C   LIG    1        3.468   1.772  -0.417  0.00  0.00    +0.040 A 
ENDBRANCH   9  10
ENDBRANCH   2   9
TORSDOF 3
ENDMDL
MODEL        3
REMARK  Name = ZINC000101013803
REMARK                            x       y       z     vdW  Elec       q    Type
REMARK                         _______ _______ _______ _____ _____    ______ ____
ROOT
ATOM      1  C   LIG    1        2.086  -0.703   1.140  0.00  0.00    +0.260 A 
ATOM      2  C   LIG    1        2.786  -0.449  -0.035  0.00  0.00    -0.090 A 
ATOM      3  C   LIG    1        4.146  -0.658  -0.086  0.00  0.00    +0.110 A 
ATOM      4  C   LIG    1        4.823  -1.126   1.043  0.00  0.00    -0.050 A 
ATOM      5  C   LIG    1        4.116  -1.380   2.223  0.00  0.00    +0.040 A 
ATOM      6  C   LIG    1        4.841  -1.884   3.443  0.00  0.00    +0.110 C 
ATOM      7  C   LIG    1        2.757  -1.164   2.269  0.00  0.00    -0.080 A 
ENDROOT
BRANCH   4   8
ATOM      8  N   LIG    1        6.173  -1.334   0.996  0.00  0.00    -0.160 NA
ATOM      9  N   LIG    1        6.799  -1.108  -0.051  0.00  0.00    -0.420 NA
ATOM     10  H   LIG    1        7.757  -1.256  -0.084  0.00  0.00    +0.360 HD
ENDBRANCH   4   8
BRANCH   1  11
ATOM     11  N   LIG    1        0.711  -0.489   1.189  0.00  0.00    -0.620 N 
BRANCH  11  13
ATOM     12  C   LIG    1       -0.019   1.526   0.010  0.00  0.00    +0.020 C 
ATOM     13  C   LIG    1        0.002  -0.004   0.002  0.00  0.00    +0.270 C 
ENDBRANCH  11  13
BRANCH  11  14
ATOM     14  C   LIG    1       -0.028  -0.750   2.427  0.00  0.00    +0.270 C 
ATOM     15  C   LIG    1       -0.511  -2.202   2.437  0.00  0.00    +0.020 C 
ENDBRANCH  11  14
ENDBRANCH   1  11
TORSDOF 4
ENDMDL
MODEL        4
REMARK  Name = ZINC000018060741
REMARK                            x       y       z     vdW  Elec       q    Type
REMARK                         _______ _______ _______ _____ _____    ______ ____
ROOT
ATOM      1  C   LIG    1        0.002  -0.004   0.002  0.00  0.00    +0.250 A 
ATOM      2  C   LIG    1       -1.195  -0.715   0.004  0.00  0.00    -0.080 A 
ATOM      3  C   LIG    1       -1.180  -2.091  -0.004  0.00  0.00    +0.140 A 
ATOM      4  C   LIG    1        0.040  -2.776  -0.014  0.00  0.00    -0.020 A 
ATOM      5  C   LIG    1        1.241  -2.058  -0.016  0.00  0.00    +0.100 A 
ATOM      6  C   LIG    1        1.218  -0.682  -0.013  0.00  0.00    -0.080 A 
ENDROOT
BRANCH   1   7
ATOM      7  N   LIG    1       -0.017   1.388   0.010  0.00  0.00    -0.860 N 
ATOM      8  H   LIG    1       -0.863   1.862   0.016  0.00  0.00    +0.400 HD
ATOM      9  H   LIG    1        0.817   1.885   0.004  0.00  0.00    +0.400 HD
ENDBRANCH   1   7
BRANCH   4  10
ATOM     10  N   LIG    1        0.058  -4.140  -0.023  0.00  0.00    -0.200 NA
ATOM     11  N   LIG    1        1.184  -4.770  -0.032  0.00  0.00    -0.240 NA
BRANCH  11  12
ATOM     12  C   LIG    1        1.202  -6.137  -0.040  0.00  0.00    +0.060 A 
ATOM     13  C   LIG    1        0.004  -6.855  -0.045  0.00  0.00    +0.020 A 
ATOM     14  C   LIG    1        0.030  -8.234  -0.053  0.00  0.00    +0.010 A 
ATOM     15  C   LIG    1        1.240  -8.906  -0.057  0.00  0.00    +0.030 A 
ATOM     16  C   LIG    1        2.431  -8.201  -0.053  0.00  0.00    +0.010 A 
ATOM     17  C   LIG    1        2.420  -6.822  -0.050  0.00  0.00    +0.060 A 
ENDBRANCH  11  12
ENDBRANCH   4  10
TORSDOF 3
ENDMDL
MODEL        5
REMARK  Name = ZINC000018044027
REMARK                            x       y       z     vdW  Elec       q    Type
REMARK                         _______ _______ _______ _____ _____    ______ ____
ROOT
ATOM      1  N   LIG    1        3.602  -0.633  -0.035  0.00  0.00    -0.300 NA
ATOM      2  N   LIG    1        3.623  -1.923  -0.043  0.00  0.00    +0.040 NA
ENDROOT
BRANCH   1   6
ATOM      3  C   LIG    1       -0.017   1.379   0.010  0.00  0.00    +0.030 A 
ATOM      4  C   LIG    1        1.168   2.093   0.002  0.00  0.00    +0.010 A 
ATOM      5  C   LIG    1        2.377   1.429  -0.013  0.00  0.00    +0.070 A 
ATOM      6  C   LIG    1        2.403   0.034  -0.021  0.00  0.00    +0.080 A 
ATOM      7  C   LIG    1        1.204  -0.681  -0.013  0.00  0.00    +0.010 A 
ATOM      8  C   LIG    1        0.002  -0.004   0.002  0.00  0.00    +0.010 A 
ENDBRANCH   1   6
BRANCH   2   9
ATOM      9  N   LIG    1        4.847  -2.603  -0.057  0.00  0.00    -0.550 N 
ATOM     10  H   LIG    1        5.679  -2.105  -0.062  0.00  0.00    +0.400 HD
BRANCH   9  11
ATOM     11  C   LIG    1        4.870  -4.000  -0.065  0.00  0.00    +0.200 A 
ATOM     12  C   LIG    1        3.679  -4.716  -0.064  0.00  0.00    -0.020 A 
ATOM     13  C   LIG    1        3.704  -6.096  -0.071  0.00  0.00    +0.050 A 
ATOM     14  C   LIG    1        4.914  -6.767  -0.080  0.00  0.00    -0.030 A 
ATOM     15  C   LIG    1        6.101  -6.058  -0.082  0.00  0.00    +0.050 A 
ATOM     16  C   LIG    1        6.083  -4.677  -0.080  0.00  0.00    -0.040 A 
ENDBRANCH   9  11
ENDBRANCH   2   9
TORSDOF 3
ENDMDL
MODEL        6
REMARK  Name = ZINC000100010406
REMARK                            x       y       z     vdW  Elec       q    Type
REMARK                         _______ _______ _______ _____ _____    ______ ____
ROOT
ATOM      1  O   LIG    1        0.002  -0.004   0.010  0.00  0.00    -0.480 OA
ATOM      2  C   LIG    1       -0.015   1.219   0.015  0.00  0.00    +0.390 C 
ATOM      3  C   LIG    1       -1.246   1.906   0.046  0.00  0.00    -0.070 C 
ATOM      4  C   LIG    1       -1.267   3.262   0.051  0.00  0.00    +0.140 C 
ATOM      5  C   LIG    1       -0.052   3.987   0.026  0.00  0.00    +0.010 C 
ATOM      6  C   LIG    1        1.182   3.295  -0.004  0.00  0.00    +0.040 C 
ATOM      7  N   LIG    1       -0.070   5.317   0.032  0.00  0.00    -0.130 NA
ATOM      8  C   LIG    1        1.197   1.939  -0.005  0.00  0.00    -0.050 C 
ENDROOT
BRANCH   7   9
ATOM      9  N   LIG    1        1.035   5.977   0.118  0.00  0.00    -0.470 N 
ATOM     10  H   LIG    1        1.883   5.506   0.103  0.00  0.00    +0.390 HD
BRANCH   9  11
ATOM     11  C   LIG    1        1.011   7.365   0.231  0.00  0.00    +0.150 A 
ATOM     12  C   LIG    1       -0.204   8.041   0.258  0.00  0.00    +0.010 A 
ATOM     13  C   LIG    1       -0.224   9.417   0.370  0.00  0.00    +0.040 A 
ATOM     14  C   LIG    1        0.963  10.123   0.455  0.00  0.00    +0.000 A 
ATOM     15  C   LIG    1        2.173   9.454   0.428  0.00  0.00    +0.040 A 
ATOM     16  C   LIG    1        2.201   8.078   0.323  0.00  0.00    -0.020 A 
ENDBRANCH   9  11
ENDBRANCH   7   9
TORSDOF 2
ENDMDL
MODEL        7
REMARK  Name = ZINC000100501879
REMARK                            x       y       z     vdW  Elec       q    Type
REMARK                         _______ _______ _______ _____ _____    ______ ____
ROOT
ATOM      1  O   LIG    1       -0.022   0.042  -0.338  0.00  0.00    -0.320 OA
ATOM      2  N   LIG    1       -0.014   1.213  -0.004  0.00  0.00    +0.150 N 
ENDROOT
BRANCH   2   3
ATOM      3  C   LIG    1       -1.174   1.826   0.358  0.00  0.00    -0.010 A 
ATOM      4  C   LIG    1       -1.169   3.174   0.737  0.00  0.00    +0.100 A 
ATOM      5  C   LIG    1       -2.349   3.787   1.102  0.00  0.00    +0.010 A 
ATOM      6  C   LIG    1       -3.535   3.074   1.094  0.00  0.00    +0.080 A 
ATOM      7  C   LIG    1       -3.549   1.741   0.720  0.00  0.00    +0.030 A 
ATOM      8  C   LIG    1       -2.380   1.113   0.347  0.00  0.00    +0.100 A 
ENDBRANCH   2   3
BRANCH   2   9
ATOM      9  N   LIG    1        1.094   1.874   0.002  0.00  0.00    -0.330 NA
BRANCH   9  10
ATOM     10  C   LIG    1        2.311   1.196   0.092  0.00  0.00    +0.070 A 
ATOM     11  C   LIG    1        2.366  -0.059   0.686  0.00  0.00    +0.010 A 
ATOM     12  C   LIG    1        3.572  -0.727   0.773  0.00  0.00    +0.020 A 
ATOM     13  C   LIG    1        4.723  -0.149   0.270  0.00  0.00    +0.010 A 
ATOM     14  C   LIG    1        4.671   1.101  -0.322  0.00  0.00    +0.020 A 
ATOM     15  C   LIG    1        3.468   1.772  -0.417  0.00  0.00    +0.040 A 
ENDBRANCH   9  10
ENDBRANCH   2   9
TORSDOF 3
ENDMDL
MODEL        8
REMARK  Name = ZINC000100017510
REMARK                            x       y       z     vdW  Elec       q    Type
REMARK                         _______ _______ _______ _____ _____    ______ ____
ROOT
ATOM      1  O   LIG    1       -0.022   0.042  -0.338  0.00  0.00    -0.320 OA
ATOM      2  N   LIG    1       -0.014   1.213  -0.004  0.00  0.00    +0.150 N 
ENDROOT
BRANCH   2   3
ATOM      3  C   LIG    1       -1.174   1.826   0.358  0.00  0.00    -0.010 A 
ATOM      4  C   LIG    1       -1.169   3.174   0.737  0.00  0.00    +0.100 A 
ATOM      5  C   LIG    1       -2.349   3.787   1.102  0.00  0.00    +0.010 A 
ATOM      6  C   LIG    1       -3.535   3.074   1.094  0.00  0.00    +0.080 A 
ATOM      7  C   LIG    1       -3.549   1.741   0.720  0.00  0.00    +0.030 A 
ATOM      8  C   LIG    1       -2.380   1.113   0.347  0.00  0.00    +0.100 A 
ENDBRANCH   2   3
BRANCH   2   9
ATOM      9  N   LIG    1        1.094   1.874   0.002  0.00  0.00    -0.330 NA
BRANCH   9  10
ATOM     10  C   LIG    1        2.311   1.196   0.092  0.00  0.00    +0.070 A 
ATOM     11  C   LIG    1        2.366  -0.059   0.686  0.00  0.00    +0.010 A 
ATOM     12  C   LIG    1        3.572  -0.727   0.773  0.00  0.00    +0.020 A 
ATOM     13  C   LIG    1        4.723  -0.149   0.270  0.00  0.00    +0.010 A 
ATOM     14  C   LIG    1        4.671   1.101  -0.322  0.00  0.00    +0.020 A 
ATOM     15  C   LIG    1        3.468   1.772  -0.417  0.00  0.00    +0.040 A 
ENDBRANCH   9  10
ENDBRANCH   2   9
TORSDOF 3
ENDMDL
MODEL        9
REMARK  Name = ZINC000032009782
REMARK                            x       y       z     vdW  Elec       q    Type
REMARK                         _______ _______ _______ _____ _____    ______ ____
ROOT
ATOM      1  C   LIG    1        0.026  -0.375   2.436  0.00  0.00    +0.130 A 
ATOM      2  C   LIG    1       -1.054  -0.656   3.262  0.00  0.00    +0.010 A 
ATOM      3  C   LIG    1       -1.050  -0.225   4.574  0.00  0.00    -0.070 A 
ATOM      4  C   LIG    1        0.030   0.486   5.066  0.00  0.00    +0.010 A 
ATOM      5  C   LIG    1        1.107   0.768   4.246  0.00  0.00    -0.070 A 
ATOM      6  C   LIG    1        2.281   1.543   4.785  0.00  0.00    +0.090 C 
ATOM      7  C   LIG    1       -2.221  -0.530   5.471  0.00  0.00    +0.100 C 
ATOM      8  C   LIG    1        1.110   0.334   2.934  0.00  0.00    +0.010 A 
ENDROOT
BRANCH   1  15
ATOM      9  C   LIG    1       -0.018   1.503   0.010  0.00  0.00    +0.130 C 
ATOM     10  C   LIG    1        0.002  -0.004   0.002  0.00  0.00    +0.020 A 
ATOM     11  C   LIG    1        0.008  -0.789  -1.095  0.00  0.00    -0.050 A 
ATOM     12  C   LIG    1        0.028  -2.128  -0.656  0.00  0.00    -0.050 A 
ATOM     13  C   LIG    1        0.034  -2.113   0.692  0.00  0.00    +0.020 A 
ATOM     14  C   LIG    1        0.054  -3.323   1.589  0.00  0.00    +0.120 C 
ATOM     15  N   LIG    1        0.024  -0.811   1.104  0.00  0.00    -0.400 N 
ENDBRANCH   1  15
TORSDOF 1
ENDMDL
MODEL       10
REMARK  Name = ZINC000000977547
REMARK                            x       y       z     vdW  Elec       q    Type
REMARK                         _______ _______ _______ _____ _____    ______ ____
ROOT
ATOM      1  C   LIG    1        0.707  -0.490  -1.238  0.00  0.00    -0.070 A 
ATOM      2  C   LIG    1       -0.012  -0.718  -2.397  0.00  0.00    +0.020 A 
ATOM      3  C   LIG    1        0.632  -1.163  -3.535  0.00  0.00    +0.020 A 
ATOM      4  C   LIG    1        2.003  -1.381  -3.514  0.00  0.00    +0.110 A 
ATOM      5  C   LIG    1        2.722  -1.152  -2.350  0.00  0.00    +0.020 A 
ATOM      6  C   LIG    1        2.074  -0.702  -1.216  0.00  0.00    +0.020 A 
ENDROOT
BRANCH   4   7
ATOM      7  N   LIG    1        2.659  -1.833  -4.668  0.00  0.00    -0.400 N 
ATOM      8  C   LIG    1        2.464  -3.041  -5.274  0.00  0.00    +0.020 A 
ATOM      9  C   LIG    1        3.273  -3.107  -6.351  0.00  0.00    -0.050 A 
ATOM     10  C   LIG    1        3.994  -1.898  -6.414  0.00  0.00    -0.050 A 
ATOM     11  C   LIG    1        1.509  -4.114  -4.819  0.00  0.00    +0.130 C 
ATOM     12  C   LIG    1        3.595  -1.135  -5.376  0.00  0.00    +0.020 A 
ATOM     13  C   LIG    1        4.103   0.246  -5.049  0.00  0.00    +0.120 C 
ENDBRANCH   4   7
BRANCH   1  15
ATOM     14  C   LIG    1       -0.019   1.526   0.010  0.00  0.00    +0.030 C 
ATOM     15  C   LIG    1        0.002  -0.004   0.002  0.00  0.00    +0.070 C 
ENDBRANCH   1  15
TORSDOF 2
ENDMDL
MODEL       11
REMARK  Name = ZINC000003186087
REMARK                            x       y       z     vdW  Elec       q    Type
REMARK                         _______ _______ _______ _____ _____    ______ ____
ROOT
ATOM      1  C   LIG    1        0.026  -0.375   2.436  0.00  0.00    +0.120 A 
ATOM      2  C   LIG    1       -1.054  -0.656   3.262  0.00  0.00    +0.020 A 
ATOM      3  C   LIG    1       -1.049  -0.225   4.574  0.00  0.00    +0.030 A 
ATOM      4  C   LIG    1        0.030   0.486   5.066  0.00  0.00    -0.080 A 
ATOM      5  C   LIG    1        1.107   0.768   4.246  0.00  0.00    -0.070 A 
ATOM      6  C   LIG    1        2.281   1.543   4.785  0.00  0.00    +0.100 C 
ATOM      7  C   LIG    1        0.032   0.955   6.498  0.00  0.00    +0.090 C 
ATOM      8  C   LIG    1        1.111   0.334   2.934  0.00  0.00    +0.020 A 
ENDROOT
BRANCH   1  15
ATOM      9  C   LIG    1       -0.018   1.503   0.010  0.00  0.00    +0.130 C 
ATOM     10  C   LIG    1        0.002  -0.004   0.002  0.00  0.00    +0.020 A 
ATOM     11  C   LIG    1        0.008  -0.789  -1.095  0.00  0.00    -0.050 A 
ATOM     12  C   LIG    1        0.028  -2.128  -0.656  0.00  0.00    -0.050 A 
ATOM     13  C   LIG    1        0.034  -2.113   0.692  0.00  0.00    +0.020 A 
ATOM     14  C   LIG    1        0.054  -3.323   1.589  0.00  0.00    +0.120 C 
ATOM     15  N   LIG    1        0.024  -0.811   1.104  0.00  0.00    -0.400 N 
ENDBRANCH   1  15
TORSDOF 1
ENDMDL
