REMARK  Name = ZINC000076495261
REMARK                            x       y       z     vdW  Elec       q    Type
REMARK                         _______ _______ _______ _____ _____    ______ ____
ROOT
ATOM      1  N   LIG    1        2.320   4.166  -0.009  0.00  0.00    -0.180 NA
ATOM      2  N   LIG    1        3.449   3.542  -0.028  0.00  0.00    -0.250 NA
ENDROOT
BRANCH   1   8
ATOM      3  O   LIG    1        0.002  -0.004   0.002  0.00  0.00    -0.730 OA
ATOM      4  C   LIG    1       -0.016   1.355   0.009  0.00  0.00    +0.250 A 
ATOM      5  C   LIG    1       -1.228   2.032   0.030  0.00  0.00    -0.130 A 
ATOM      6  C   LIG    1       -1.254   3.415   0.039  0.00  0.00    +0.020 A 
ATOM      7  C   LIG    1       -0.076   4.132   0.025  0.00  0.00    -0.080 A 
ATOM      8  C   LIG    1        1.149   3.459   0.004  0.00  0.00    +0.070 A 
ATOM      9  C   LIG    1        1.173   2.063   0.002  0.00  0.00    -0.110 A 
ENDBRANCH   1   8
BRANCH   2  10
ATOM     10  C   LIG    1        4.619   4.249  -0.041  0.00  0.00    +0.070 A 
ATOM     11  C   LIG    1        4.596   5.646  -0.028  0.00  0.00    +0.010 A 
ATOM     12  C   LIG    1        5.781   6.352  -0.041  0.00  0.00    +0.000 A 
ATOM     13  C   LIG    1        6.990   5.680  -0.068  0.00  0.00    +0.000 A 
ATOM     14  C   LIG    1        7.021   4.296  -0.082  0.00  0.00    +0.010 A 
ATOM     15  C   LIG    1        5.845   3.577  -0.062  0.00  0.00    +0.050 A 
ENDBRANCH   2  10
TORSDOF 2
