MODEL        1
REMARK  Name = ZINC000104155760
REMARK                            x       y       z     vdW  Elec       q    Type
REMARK                         _______ _______ _______ _____ _____    ______ ____
ROOT
ATOM      1  C   LIG    1        0.928  -4.104  -2.038  0.00  0.00    +0.130 C 
ATOM      2  C   LIG    1        1.611  -4.739  -0.825  0.00  0.00    +0.110 C 
ENDROOT
BRANCH   1   4
ATOM      3  N   LIG    1        0.723  -1.946  -1.141  0.00  0.00    +0.130 N 
ATOM      4  N   LIG    1        1.184  -2.661  -2.043  0.00  0.00    -0.100 NA
BRANCH   3   7
ATOM      5  C   LIG    1        0.954   1.594  -0.027  0.00  0.00    +0.160 C 
ATOM      6  C   LIG    1        0.573   0.138  -0.104  0.00  0.00    +0.200 C 
ATOM      7  C   LIG    1        1.068  -0.628  -1.071  0.00  0.00    +0.160 C 
ENDBRANCH   3   7
BRANCH   3   8
ATOM      8  O   LIG    1       -0.163  -2.498  -0.184  0.00  0.00    -0.350 OA
ATOM      9  H   LIG    1       -0.370  -3.431  -0.331  0.00  0.00    +0.430 HD
ENDBRANCH   3   8
ENDBRANCH   1   4
BRANCH   1  10
ATOM     10  C   LIG    1        1.486  -4.725  -3.320  0.00  0.00    +0.100 C 
BRANCH  10  11
ATOM     11  C   LIG    1        0.717  -4.182  -4.526  0.00  0.00    +0.010 C 
BRANCH  11  12
ATOM     12  C   LIG    1        1.274  -4.803  -5.808  0.00  0.00    +0.020 C 
BRANCH  12  13
ATOM     13  C   LIG    1        0.505  -4.260  -7.014  0.00  0.00    +0.000 C 
BRANCH  13  14
ATOM     14  C   LIG    1        1.063  -4.881  -8.297  0.00  0.00    -0.010 C 
ATOM     15  C   LIG    1        0.294  -4.338  -9.503  0.00  0.00    +0.000 C 
ENDBRANCH  13  14
ENDBRANCH  12  13
ENDBRANCH  11  12
ENDBRANCH  10  11
ENDBRANCH   1  10
TORSDOF 8
ENDMDL
MODEL        2
REMARK  Name = ZINC000001731949
REMARK                            x       y       z     vdW  Elec       q    Type
REMARK                         _______ _______ _______ _____ _____    ______ ____
ROOT
ATOM      1  C   LIG    1        0.928  -4.104  -2.038  0.00  0.00    +0.130 C 
ATOM      2  C   LIG    1        1.611  -4.739  -0.825  0.00  0.00    +0.110 C 
ENDROOT
BRANCH   1   4
ATOM      3  N   LIG    1        0.723  -1.946  -1.141  0.00  0.00    +0.130 N 
ATOM      4  N   LIG    1        1.184  -2.661  -2.043  0.00  0.00    -0.100 NA
BRANCH   3   7
ATOM      5  C   LIG    1        0.954   1.594  -0.027  0.00  0.00    +0.160 C 
ATOM      6  C   LIG    1        0.573   0.138  -0.104  0.00  0.00    +0.200 C 
ATOM      7  C   LIG    1        1.068  -0.628  -1.071  0.00  0.00    +0.160 C 
ENDBRANCH   3   7
BRANCH   3   8
ATOM      8  O   LIG    1       -0.163  -2.498  -0.184  0.00  0.00    -0.350 OA
ATOM      9  H   LIG    1       -0.370  -3.431  -0.331  0.00  0.00    +0.430 HD
ENDBRANCH   3   8
ENDBRANCH   1   4
BRANCH   1  10
ATOM     10  C   LIG    1        1.486  -4.725  -3.320  0.00  0.00    +0.100 C 
BRANCH  10  11
ATOM     11  C   LIG    1        0.717  -4.182  -4.526  0.00  0.00    +0.010 C 
BRANCH  11  12
ATOM     12  C   LIG    1        1.274  -4.803  -5.808  0.00  0.00    +0.020 C 
BRANCH  12  13
ATOM     13  C   LIG    1        0.505  -4.260  -7.014  0.00  0.00    +0.000 C 
BRANCH  13  14
ATOM     14  C   LIG    1        1.063  -4.881  -8.297  0.00  0.00    -0.010 C 
ATOM     15  C   LIG    1        0.294  -4.338  -9.503  0.00  0.00    +0.000 C 
ENDBRANCH  13  14
ENDBRANCH  12  13
ENDBRANCH  11  12
ENDBRANCH  10  11
ENDBRANCH   1  10
TORSDOF 8
ENDMDL
MODEL        3
REMARK  Name = ZINC000104155755
REMARK                            x       y       z     vdW  Elec       q    Type
REMARK                         _______ _______ _______ _____ _____    ______ ____
ROOT
ATOM      1  C   LIG    1        0.928  -4.104  -2.038  0.00  0.00    +0.130 C 
ATOM      2  C   LIG    1        1.611  -4.739  -0.825  0.00  0.00    +0.110 C 
ENDROOT
BRANCH   1   4
ATOM      3  N   LIG    1        0.723  -1.946  -1.141  0.00  0.00    +0.130 N 
ATOM      4  N   LIG    1        1.184  -2.661  -2.043  0.00  0.00    -0.100 NA
BRANCH   3   7
ATOM      5  C   LIG    1        0.954   1.594  -0.027  0.00  0.00    +0.160 C 
ATOM      6  C   LIG    1        0.573   0.138  -0.104  0.00  0.00    +0.200 C 
ATOM      7  C   LIG    1        1.068  -0.628  -1.071  0.00  0.00    +0.160 C 
ENDBRANCH   3   7
BRANCH   3   8
ATOM      8  O   LIG    1       -0.163  -2.498  -0.184  0.00  0.00    -0.350 OA
ATOM      9  H   LIG    1       -0.370  -3.431  -0.331  0.00  0.00    +0.430 HD
ENDBRANCH   3   8
ENDBRANCH   1   4
BRANCH   1  10
ATOM     10  C   LIG    1        1.486  -4.725  -3.320  0.00  0.00    +0.100 C 
BRANCH  10  11
ATOM     11  C   LIG    1        0.717  -4.182  -4.526  0.00  0.00    +0.010 C 
BRANCH  11  12
ATOM     12  C   LIG    1        1.274  -4.803  -5.808  0.00  0.00    +0.020 C 
BRANCH  12  13
ATOM     13  C   LIG    1        0.505  -4.260  -7.014  0.00  0.00    +0.000 C 
BRANCH  13  14
ATOM     14  C   LIG    1        1.063  -4.881  -8.297  0.00  0.00    -0.010 C 
ATOM     15  C   LIG    1        0.294  -4.338  -9.503  0.00  0.00    +0.000 C 
ENDBRANCH  13  14
ENDBRANCH  12  13
ENDBRANCH  11  12
ENDBRANCH  10  11
ENDBRANCH   1  10
TORSDOF 8
ENDMDL
MODEL        4
REMARK  Name = ZINC000017021437
REMARK                            x       y       z     vdW  Elec       q    Type
REMARK                         _______ _______ _______ _____ _____    ______ ____
ROOT
ATOM      1  C   LIG    1        0.928  -4.104  -2.038  0.00  0.00    +0.130 C 
ATOM      2  C   LIG    1        1.611  -4.739  -0.825  0.00  0.00    +0.110 C 
ENDROOT
BRANCH   1   4
ATOM      3  N   LIG    1        0.723  -1.946  -1.141  0.00  0.00    +0.130 N 
ATOM      4  N   LIG    1        1.184  -2.661  -2.043  0.00  0.00    -0.100 NA
BRANCH   3   7
ATOM      5  C   LIG    1        0.954   1.594  -0.027  0.00  0.00    +0.160 C 
ATOM      6  C   LIG    1        0.573   0.138  -0.104  0.00  0.00    +0.200 C 
ATOM      7  C   LIG    1        1.068  -0.628  -1.071  0.00  0.00    +0.160 C 
ENDBRANCH   3   7
BRANCH   3   8
ATOM      8  O   LIG    1       -0.163  -2.498  -0.184  0.00  0.00    -0.350 OA
ATOM      9  H   LIG    1       -0.370  -3.431  -0.331  0.00  0.00    +0.430 HD
ENDBRANCH   3   8
ENDBRANCH   1   4
BRANCH   1  10
ATOM     10  C   LIG    1        1.486  -4.725  -3.320  0.00  0.00    +0.100 C 
BRANCH  10  11
ATOM     11  C   LIG    1        0.717  -4.182  -4.526  0.00  0.00    +0.010 C 
BRANCH  11  12
ATOM     12  C   LIG    1        1.274  -4.803  -5.808  0.00  0.00    +0.020 C 
BRANCH  12  13
ATOM     13  C   LIG    1        0.505  -4.260  -7.014  0.00  0.00    +0.000 C 
BRANCH  13  14
ATOM     14  C   LIG    1        1.063  -4.881  -8.297  0.00  0.00    -0.010 C 
ATOM     15  C   LIG    1        0.294  -4.338  -9.503  0.00  0.00    +0.000 C 
ENDBRANCH  13  14
ENDBRANCH  12  13
ENDBRANCH  11  12
ENDBRANCH  10  11
ENDBRANCH   1  10
TORSDOF 8
ENDMDL
