REMARK  Name = ZINC000100354342
REMARK                            x       y       z     vdW  Elec       q    Type
REMARK                         _______ _______ _______ _____ _____    ______ ____
ROOT
ATOM      1  C   LIG    1       -0.018   1.503   0.010  0.00  0.00    +0.100 C 
ATOM      2  C   LIG    1        0.002  -0.004   0.002  0.00  0.00    -0.010 A 
ATOM      3  C   LIG    1        0.006  -0.698  -1.227  0.00  0.00    -0.100 A 
ATOM      4  C   LIG    1       -0.008  -0.171  -2.584  0.00  0.00    +0.260 A 
ATOM      5  C   LIG    1       -0.000  -1.087  -3.534  0.00  0.00    -0.320 A 
ATOM      6  S   LIG    1        0.026  -2.706  -2.862  0.00  0.00    +0.000 S 
ATOM      7  O   LIG    1       -0.028   1.165  -2.853  0.00  0.00    -0.720 OA
ATOM      8  C   LIG    1        0.025  -2.095  -1.213  0.00  0.00    -0.110 A 
ATOM      9  C   LIG    1        0.041  -2.777   0.008  0.00  0.00    +0.020 A 
ATOM     10  C   LIG    1        0.038  -2.075   1.192  0.00  0.00    -0.020 A 
ATOM     11 CL   LIG    1        0.057  -2.928   2.704  0.00  0.00    -0.090 Cl
ATOM     12  C   LIG    1        0.022  -0.686   1.180  0.00  0.00    -0.020 A 
ENDROOT
TORSDOF 0
