MODEL        1
REMARK  Name = ZINC000104155760
REMARK                            x       y       z     vdW  Elec       q    Type
REMARK                         _______ _______ _______ _____ _____    ______ ____
ROOT
ATOM      1  C   LIG    1        1.215  -4.124   1.940  0.00  0.00    +0.140 C 
ATOM      2  C   LIG    1       -0.221  -4.653   1.950  0.00  0.00    +0.040 C 
ENDROOT
BRANCH   1   3
ATOM      3  N   LIG    1        1.195  -2.659   1.948  0.00  0.00    -0.340 NA
BRANCH   3   4
ATOM      4  N   LIG    1        0.618  -2.016   0.989  0.00  0.00    +0.150 N 
ATOM      5  O   LIG    1        0.091  -2.627   0.077  0.00  0.00    -0.380 OA
BRANCH   4   8
ATOM      6  C   LIG    1       -0.018   1.503   0.010  0.00  0.00    +0.120 C 
ATOM      7  C   LIG    1        0.002  -0.004   0.002  0.00  0.00    +0.120 C 
ATOM      8  C   LIG    1        0.600  -0.671   0.996  0.00  0.00    +0.090 C 
ENDBRANCH   4   8
ENDBRANCH   3   4
ENDBRANCH   1   3
BRANCH   1   9
ATOM      9  C   LIG    1        1.955  -4.630   3.179  0.00  0.00    +0.050 C 
BRANCH   9  10
ATOM     10  C   LIG    1        3.423  -4.205   3.106  0.00  0.00    +0.010 C 
BRANCH  10  11
ATOM     11  C   LIG    1        4.163  -4.712   4.346  0.00  0.00    +0.000 C 
BRANCH  11  12
ATOM     12  C   LIG    1        5.631  -4.287   4.273  0.00  0.00    +0.000 C 
BRANCH  12  13
ATOM     13  C   LIG    1        6.371  -4.794   5.512  0.00  0.00    -0.010 C 
ATOM     14  C   LIG    1        7.838  -4.369   5.439  0.00  0.00    +0.000 C 
ENDBRANCH  12  13
ENDBRANCH  11  12
ENDBRANCH  10  11
ENDBRANCH   9  10
ENDBRANCH   1   9
TORSDOF 8
ENDMDL
MODEL        2
REMARK  Name = ZINC000001731949
REMARK                            x       y       z     vdW  Elec       q    Type
REMARK                         _______ _______ _______ _____ _____    ______ ____
ROOT
ATOM      1  C   LIG    1        1.215  -4.124   1.940  0.00  0.00    +0.140 C 
ATOM      2  C   LIG    1       -0.221  -4.653   1.950  0.00  0.00    +0.040 C 
ENDROOT
BRANCH   1   3
ATOM      3  N   LIG    1        1.195  -2.659   1.948  0.00  0.00    -0.340 NA
BRANCH   3   4
ATOM      4  N   LIG    1        0.618  -2.016   0.989  0.00  0.00    +0.150 N 
ATOM      5  O   LIG    1        0.091  -2.627   0.077  0.00  0.00    -0.380 OA
BRANCH   4   8
ATOM      6  C   LIG    1       -0.018   1.503   0.010  0.00  0.00    +0.120 C 
ATOM      7  C   LIG    1        0.002  -0.004   0.002  0.00  0.00    +0.120 C 
ATOM      8  C   LIG    1        0.600  -0.671   0.996  0.00  0.00    +0.090 C 
ENDBRANCH   4   8
ENDBRANCH   3   4
ENDBRANCH   1   3
BRANCH   1   9
ATOM      9  C   LIG    1        1.955  -4.630   3.179  0.00  0.00    +0.050 C 
BRANCH   9  10
ATOM     10  C   LIG    1        3.423  -4.205   3.106  0.00  0.00    +0.010 C 
BRANCH  10  11
ATOM     11  C   LIG    1        4.163  -4.712   4.346  0.00  0.00    +0.000 C 
BRANCH  11  12
ATOM     12  C   LIG    1        5.631  -4.287   4.273  0.00  0.00    +0.000 C 
BRANCH  12  13
ATOM     13  C   LIG    1        6.371  -4.794   5.512  0.00  0.00    -0.010 C 
ATOM     14  C   LIG    1        7.838  -4.369   5.439  0.00  0.00    +0.000 C 
ENDBRANCH  12  13
ENDBRANCH  11  12
ENDBRANCH  10  11
ENDBRANCH   9  10
ENDBRANCH   1   9
TORSDOF 8
ENDMDL
MODEL        3
REMARK  Name = ZINC000104155755
REMARK                            x       y       z     vdW  Elec       q    Type
REMARK                         _______ _______ _______ _____ _____    ______ ____
ROOT
ATOM      1  C   LIG    1        1.215  -4.124   1.940  0.00  0.00    +0.140 C 
ATOM      2  C   LIG    1       -0.221  -4.653   1.950  0.00  0.00    +0.040 C 
ENDROOT
BRANCH   1   3
ATOM      3  N   LIG    1        1.195  -2.659   1.948  0.00  0.00    -0.340 NA
BRANCH   3   4
ATOM      4  N   LIG    1        0.618  -2.016   0.989  0.00  0.00    +0.150 N 
ATOM      5  O   LIG    1        0.091  -2.627   0.077  0.00  0.00    -0.380 OA
BRANCH   4   8
ATOM      6  C   LIG    1       -0.018   1.503   0.010  0.00  0.00    +0.120 C 
ATOM      7  C   LIG    1        0.002  -0.004   0.002  0.00  0.00    +0.120 C 
ATOM      8  C   LIG    1        0.600  -0.671   0.996  0.00  0.00    +0.090 C 
ENDBRANCH   4   8
ENDBRANCH   3   4
ENDBRANCH   1   3
BRANCH   1   9
ATOM      9  C   LIG    1        1.955  -4.630   3.179  0.00  0.00    +0.050 C 
BRANCH   9  10
ATOM     10  C   LIG    1        3.423  -4.205   3.106  0.00  0.00    +0.010 C 
BRANCH  10  11
ATOM     11  C   LIG    1        4.163  -4.712   4.346  0.00  0.00    +0.000 C 
BRANCH  11  12
ATOM     12  C   LIG    1        5.631  -4.287   4.273  0.00  0.00    +0.000 C 
BRANCH  12  13
ATOM     13  C   LIG    1        6.371  -4.794   5.512  0.00  0.00    -0.010 C 
ATOM     14  C   LIG    1        7.838  -4.369   5.439  0.00  0.00    +0.000 C 
ENDBRANCH  12  13
ENDBRANCH  11  12
ENDBRANCH  10  11
ENDBRANCH   9  10
ENDBRANCH   1   9
TORSDOF 8
ENDMDL
MODEL        4
REMARK  Name = ZINC000017021437
REMARK                            x       y       z     vdW  Elec       q    Type
REMARK                         _______ _______ _______ _____ _____    ______ ____
ROOT
ATOM      1  C   LIG    1        1.215  -4.124   1.940  0.00  0.00    +0.140 C 
ATOM      2  C   LIG    1       -0.221  -4.653   1.950  0.00  0.00    +0.040 C 
ENDROOT
BRANCH   1   3
ATOM      3  N   LIG    1        1.195  -2.659   1.948  0.00  0.00    -0.340 NA
BRANCH   3   4
ATOM      4  N   LIG    1        0.618  -2.016   0.989  0.00  0.00    +0.150 N 
ATOM      5  O   LIG    1        0.091  -2.627   0.077  0.00  0.00    -0.380 OA
BRANCH   4   8
ATOM      6  C   LIG    1       -0.018   1.503   0.010  0.00  0.00    +0.120 C 
ATOM      7  C   LIG    1        0.002  -0.004   0.002  0.00  0.00    +0.120 C 
ATOM      8  C   LIG    1        0.600  -0.671   0.996  0.00  0.00    +0.090 C 
ENDBRANCH   4   8
ENDBRANCH   3   4
ENDBRANCH   1   3
BRANCH   1   9
ATOM      9  C   LIG    1        1.955  -4.630   3.179  0.00  0.00    +0.050 C 
BRANCH   9  10
ATOM     10  C   LIG    1        3.423  -4.205   3.106  0.00  0.00    +0.010 C 
BRANCH  10  11
ATOM     11  C   LIG    1        4.163  -4.712   4.346  0.00  0.00    +0.000 C 
BRANCH  11  12
ATOM     12  C   LIG    1        5.631  -4.287   4.273  0.00  0.00    +0.000 C 
BRANCH  12  13
ATOM     13  C   LIG    1        6.371  -4.794   5.512  0.00  0.00    -0.010 C 
ATOM     14  C   LIG    1        7.838  -4.369   5.439  0.00  0.00    +0.000 C 
ENDBRANCH  12  13
ENDBRANCH  11  12
ENDBRANCH  10  11
ENDBRANCH   9  10
ENDBRANCH   1   9
TORSDOF 8
ENDMDL
MODEL        5
REMARK  Name = ZINC000100354342
REMARK                            x       y       z     vdW  Elec       q    Type
REMARK                         _______ _______ _______ _____ _____    ______ ____
ROOT
ATOM      1  C   LIG    1       -0.018   1.503   0.010  0.00  0.00    +0.110 C 
ATOM      2  C   LIG    1        0.002  -0.004   0.002  0.00  0.00    -0.020 A 
ATOM      3  C   LIG    1        0.006  -0.698  -1.227  0.00  0.00    -0.100 A 
ATOM      4  C   LIG    1       -0.008  -0.171  -2.584  0.00  0.00    +0.110 A 
ATOM      5  C   LIG    1       -0.000  -1.087  -3.534  0.00  0.00    -0.050 A 
ATOM      6  S   LIG    1        0.026  -2.706  -2.862  0.00  0.00    +0.140 S 
ATOM      7  C   LIG    1        0.025  -2.095  -1.213  0.00  0.00    -0.130 A 
ATOM      8  C   LIG    1        0.041  -2.777   0.008  0.00  0.00    +0.060 A 
ATOM      9  C   LIG    1        0.038  -2.075   1.192  0.00  0.00    -0.010 A 
ATOM     10 CL   LIG    1        0.057  -2.928   2.704  0.00  0.00    -0.060 Cl
ATOM     11  C   LIG    1        0.022  -0.686   1.180  0.00  0.00    +0.020 A 
ENDROOT
BRANCH   4  12
ATOM     12  O   LIG    1       -0.028   1.165  -2.853  0.00  0.00    -0.480 OA
ATOM     13  H   LIG    1        0.850   1.562  -2.934  0.00  0.00    +0.390 HD
ENDBRANCH   4  12
TORSDOF 1
ENDMDL
