MODEL        1
REMARK  Name = ZINC000008729247
REMARK                            x       y       z     vdW  Elec       q    Type
REMARK                         _______ _______ _______ _____ _____    ______ ____
ROOT
ATOM      1  C   LIG    1        0.260   0.028   2.460  0.00  0.00    +0.260 C 
ATOM      2  C   LIG    1        1.177   1.252   2.405  0.00  0.00    +0.060 C 
ENDROOT
BRANCH   1   9
ATOM      3  C   LIG    1       -2.284  -1.332   1.323  0.00  0.00    +0.120 C 
ATOM      4  C   LIG    1       -0.967  -1.159   0.612  0.00  0.00    +0.020 A 
ATOM      5  C   LIG    1       -0.687  -1.568  -0.642  0.00  0.00    -0.070 A 
ATOM      6  C   LIG    1        0.648  -1.210  -0.914  0.00  0.00    -0.070 A 
ATOM      7  C   LIG    1        1.133  -0.595   0.184  0.00  0.00    +0.010 A 
ATOM      8  C   LIG    1        2.525  -0.040   0.344  0.00  0.00    +0.130 C 
ATOM      9  N   LIG    1        0.144  -0.556   1.122  0.00  0.00    -0.440 N 
ENDBRANCH   1   9
BRANCH   1  10
ATOM     10  C   LIG    1       -1.105   0.445   2.946  0.00  0.00    -0.100 A 
ATOM     11  C   LIG    1       -1.823   1.401   2.253  0.00  0.00    +0.030 A 
ATOM     12  C   LIG    1       -3.074   1.784   2.699  0.00  0.00    +0.000 A 
ATOM     13  C   LIG    1       -3.608   1.209   3.837  0.00  0.00    +0.010 A 
ATOM     14  C   LIG    1       -2.890   0.252   4.529  0.00  0.00    +0.010 A 
ATOM     15  C   LIG    1       -1.641  -0.134   4.081  0.00  0.00    +0.010 A 
ENDBRANCH   1  10
TORSDOF 2
ENDMDL
MODEL        2
REMARK  Name = ZINC000008729250
REMARK                            x       y       z     vdW  Elec       q    Type
REMARK                         _______ _______ _______ _____ _____    ______ ____
ROOT
ATOM      1  C   LIG    1        0.019  -0.149   2.417  0.00  0.00    +0.260 C 
ATOM      2  C   LIG    1       -1.250   0.685   2.607  0.00  0.00    +0.060 C 
ENDROOT
BRANCH   1   9
ATOM      3  C   LIG    1       -2.447  -0.899   0.693  0.00  0.00    +0.130 C 
ATOM      4  C   LIG    1       -1.002  -0.984   0.274  0.00  0.00    +0.010 A 
ATOM      5  C   LIG    1       -0.550  -1.399  -0.927  0.00  0.00    -0.070 A 
ATOM      6  C   LIG    1        0.857  -1.321  -0.898  0.00  0.00    -0.070 A 
ATOM      7  C   LIG    1        1.211  -0.862   0.319  0.00  0.00    +0.020 A 
ATOM      8  C   LIG    1        2.620  -0.621   0.797  0.00  0.00    +0.120 C 
ATOM      9  N   LIG    1        0.074  -0.648   1.041  0.00  0.00    -0.440 N 
ENDBRANCH   1   9
BRANCH   1  10
ATOM     10  C   LIG    1        1.228   0.708   2.690  0.00  0.00    -0.100 A 
ATOM     11  C   LIG    1        1.470   1.827   1.917  0.00  0.00    +0.030 A 
ATOM     12  C   LIG    1        2.580   2.614   2.167  0.00  0.00    +0.000 A 
ATOM     13  C   LIG    1        3.446   2.280   3.191  0.00  0.00    +0.010 A 
ATOM     14  C   LIG    1        3.203   1.161   3.965  0.00  0.00    +0.010 A 
ATOM     15  C   LIG    1        2.092   0.377   3.718  0.00  0.00    +0.010 A 
ENDBRANCH   1  10
TORSDOF 2
ENDMDL
MODEL        3
REMARK  Name = ZINC000205371350
REMARK                            x       y       z     vdW  Elec       q    Type
REMARK                         _______ _______ _______ _____ _____    ______ ____
ROOT
ATOM      1  C   LIG    1        0.622  -0.190  -1.368  0.00  0.00    +0.190 C 
ATOM      2  S   LIG    1        1.401   1.133  -2.126  0.00  0.00    -0.390 S 
ENDROOT
BRANCH   1   3
ATOM      3  C   LIG    1        0.666  -1.470  -1.962  0.00  0.00    -0.250 A 
ATOM      4  C   LIG    1        1.722  -1.982  -2.672  0.00  0.00    +0.130 A 
ATOM      5  C   LIG    1        1.495  -3.253  -3.139  0.00  0.00    +0.000 A 
ATOM      6  C   LIG    1        0.300  -3.770  -2.826  0.00  0.00    -0.050 A 
ATOM      7  S   LIG    1       -0.620  -2.668  -1.904  0.00  0.00    +0.230 S 
ENDBRANCH   1   3
BRANCH   1   9
ATOM      8  C   LIG    1        0.135   1.433   0.442  0.00  0.00    +0.060 C 
ATOM      9  C   LIG    1       -0.111   0.011  -0.067  0.00  0.00    -0.070 C 
ATOM     10  C   LIG    1       -1.610  -0.199  -0.288  0.00  0.00    +0.070 C 
ATOM     11  C   LIG    1        0.399  -0.995   0.967  0.00  0.00    +0.060 C 
ENDBRANCH   1   9
TORSDOF 2
ENDMDL
MODEL        4
REMARK  Name = ZINC000228968937
REMARK                            x       y       z     vdW  Elec       q    Type
REMARK                         _______ _______ _______ _____ _____    ______ ____
ROOT
ATOM      1  S   LIG    1        0.002  -0.004   0.002  0.00  0.00    -0.260 S 
ATOM      2  C   LIG    1       -0.020   1.595   0.011  0.00  0.00    +0.080 C 
ENDROOT
BRANCH   2   3
ATOM      3  C   LIG    1        1.243   2.347   0.003  0.00  0.00    -0.110 A 
ATOM      4  C   LIG    1        1.349   3.551   0.707  0.00  0.00    +0.050 A 
ATOM      5  C   LIG    1        2.537   4.251   0.694  0.00  0.00    +0.000 A 
ATOM      6  C   LIG    1        3.623   3.765  -0.013  0.00  0.00    +0.040 A 
ATOM      7  C   LIG    1        3.526   2.574  -0.712  0.00  0.00    +0.000 A 
ATOM      8  C   LIG    1        2.348   1.859  -0.704  0.00  0.00    +0.080 A 
ENDBRANCH   2   3
BRANCH   2   9
ATOM      9  C   LIG    1       -1.335   2.330   0.021  0.00  0.00    +0.010 C 
ATOM     10  C   LIG    1       -1.634   2.926  -1.377  0.00  0.00    +0.040 C 
ATOM     11  C   LIG    1       -3.175   3.075  -1.362  0.00  0.00    +0.020 C 
ATOM     12  C   LIG    1       -3.670   1.824  -0.607  0.00  0.00    +0.010 C 
ATOM     13  C   LIG    1       -2.500   1.351   0.272  0.00  0.00    +0.040 C 
ENDBRANCH   2   9
TORSDOF 2
ENDMDL
MODEL        5
REMARK  Name = ZINC000033839053
REMARK                            x       y       z     vdW  Elec       q    Type
REMARK                         _______ _______ _______ _____ _____    ______ ____
ROOT
ATOM      1  O   LIG    1        0.038   0.042   0.526  0.00  0.00    -0.520 OA
ATOM      2  C   LIG    1        0.005   1.244   0.303  0.00  0.00    +0.390 C 
ATOM      3  C   LIG    1       -1.213   1.946   0.325  0.00  0.00    -0.110 C 
ATOM      4  C   LIG    1       -1.232   3.283   0.075  0.00  0.00    +0.120 C 
ATOM      5  C   LIG    1       -0.064   3.990  -0.207  0.00  0.00    -0.030 C 
ATOM      6  C   LIG    1        1.147   3.376  -0.245  0.00  0.00    +0.130 C 
ATOM      7  C   LIG    1        1.241   1.988   0.013  0.00  0.00    -0.090 C 
ATOM      8  N   LIG    1        2.416   1.369  -0.019  0.00  0.00    -0.100 NA
ENDROOT
BRANCH   8   9
ATOM      9  N   LIG    1        2.471   0.084   0.077  0.00  0.00    -0.430 N 
ATOM     10  H   LIG    1        1.653  -0.437   0.091  0.00  0.00    +0.420 HD
BRANCH   9  11
ATOM     11  C   LIG    1        3.706  -0.556   0.161  0.00  0.00    +0.140 A 
ATOM     12  C   LIG    1        4.880   0.189   0.148  0.00  0.00    +0.010 A 
ATOM     13  C   LIG    1        6.101  -0.449   0.232  0.00  0.00    +0.040 A 
ATOM     14  C   LIG    1        6.158  -1.828   0.329  0.00  0.00    +0.000 A 
ATOM     15  C   LIG    1        4.992  -2.572   0.343  0.00  0.00    +0.040 A 
ATOM     16  C   LIG    1        3.767  -1.942   0.265  0.00  0.00    -0.010 A 
ENDBRANCH   9  11
ENDBRANCH   8   9
TORSDOF 2
ENDMDL
MODEL        6
REMARK  Name = ZINC000100010401
REMARK                            x       y       z     vdW  Elec       q    Type
REMARK                         _______ _______ _______ _____ _____    ______ ____
ROOT
ATOM      1  O   LIG    1        0.002  -0.004   0.010  0.00  0.00    -0.480 OA
ATOM      2  C   LIG    1       -0.015   1.219   0.015  0.00  0.00    +0.390 C 
ATOM      3  C   LIG    1       -1.246   1.906   0.046  0.00  0.00    -0.070 C 
ATOM      4  C   LIG    1       -1.267   3.262   0.051  0.00  0.00    +0.140 C 
ATOM      5  C   LIG    1       -0.052   3.987   0.026  0.00  0.00    +0.010 C 
ATOM      6  C   LIG    1        1.182   3.295  -0.004  0.00  0.00    +0.040 C 
ATOM      7  N   LIG    1       -0.070   5.317   0.032  0.00  0.00    -0.130 NA
ATOM      8  C   LIG    1        1.197   1.939  -0.005  0.00  0.00    -0.050 C 
ENDROOT
BRANCH   7   9
ATOM      9  N   LIG    1        1.035   5.977   0.118  0.00  0.00    -0.470 N 
ATOM     10  H   LIG    1        1.883   5.506   0.103  0.00  0.00    +0.390 HD
BRANCH   9  11
ATOM     11  C   LIG    1        1.011   7.365   0.231  0.00  0.00    +0.150 A 
ATOM     12  C   LIG    1       -0.204   8.041   0.258  0.00  0.00    +0.010 A 
ATOM     13  C   LIG    1       -0.224   9.417   0.370  0.00  0.00    +0.040 A 
ATOM     14  C   LIG    1        0.963  10.123   0.455  0.00  0.00    +0.000 A 
ATOM     15  C   LIG    1        2.173   9.454   0.428  0.00  0.00    +0.040 A 
ATOM     16  C   LIG    1        2.201   8.078   0.323  0.00  0.00    -0.020 A 
ENDBRANCH   9  11
ENDBRANCH   7   9
TORSDOF 2
ENDMDL
MODEL        7
REMARK  Name = ZINC000100854688
REMARK                            x       y       z     vdW  Elec       q    Type
REMARK                         _______ _______ _______ _____ _____    ______ ____
ROOT
ATOM      1  O   LIG    1        0.038   0.042   0.526  0.00  0.00    -0.520 OA
ATOM      2  C   LIG    1        0.005   1.244   0.303  0.00  0.00    +0.390 C 
ATOM      3  C   LIG    1       -1.213   1.946   0.325  0.00  0.00    -0.110 C 
ATOM      4  C   LIG    1       -1.232   3.283   0.075  0.00  0.00    +0.120 C 
ATOM      5  C   LIG    1       -0.064   3.990  -0.207  0.00  0.00    -0.030 C 
ATOM      6  C   LIG    1        1.147   3.376  -0.245  0.00  0.00    +0.130 C 
ATOM      7  C   LIG    1        1.241   1.988   0.013  0.00  0.00    -0.090 C 
ATOM      8  N   LIG    1        2.416   1.369  -0.019  0.00  0.00    -0.100 NA
ENDROOT
BRANCH   8   9
ATOM      9  N   LIG    1        2.471   0.084   0.077  0.00  0.00    -0.430 N 
ATOM     10  H   LIG    1        1.653  -0.437   0.091  0.00  0.00    +0.420 HD
BRANCH   9  11
ATOM     11  C   LIG    1        3.706  -0.556   0.161  0.00  0.00    +0.140 A 
ATOM     12  C   LIG    1        4.880   0.189   0.148  0.00  0.00    +0.010 A 
ATOM     13  C   LIG    1        6.101  -0.449   0.232  0.00  0.00    +0.040 A 
ATOM     14  C   LIG    1        6.158  -1.828   0.329  0.00  0.00    +0.000 A 
ATOM     15  C   LIG    1        4.992  -2.572   0.343  0.00  0.00    +0.040 A 
ATOM     16  C   LIG    1        3.767  -1.942   0.265  0.00  0.00    -0.010 A 
ENDBRANCH   9  11
ENDBRANCH   8   9
TORSDOF 2
ENDMDL
MODEL        8
REMARK  Name = ZINC000095935369
REMARK                            x       y       z     vdW  Elec       q    Type
REMARK                         _______ _______ _______ _____ _____    ______ ____
ROOT
ATOM      1  C   LIG    1        1.243   2.347   0.003  0.00  0.00    -0.130 A 
ATOM      2  C   LIG    1        2.466   1.667  -0.018  0.00  0.00    +0.090 A 
ATOM      3  C   LIG    1        3.651   2.374  -0.026  0.00  0.00    +0.010 A 
ATOM      4  C   LIG    1        3.638   3.755  -0.012  0.00  0.00    +0.060 A 
ATOM      5  C   LIG    1        2.427   4.447   0.009  0.00  0.00    -0.060 A 
ATOM      6  C   LIG    1        1.227   3.744   0.010  0.00  0.00    +0.070 A 
ENDROOT
BRANCH   5   7
ATOM      7  C   LIG    1        2.418   5.931   0.024  0.00  0.00    -0.050 A 
ATOM      8  C   LIG    1        1.210   6.623   0.051  0.00  0.00    +0.010 A 
ATOM      9  C   LIG    1        1.208   8.003   0.065  0.00  0.00    +0.010 A 
ATOM     10  C   LIG    1        2.403   8.699   0.051  0.00  0.00    +0.000 A 
ATOM     11  C   LIG    1        3.606   8.017   0.024  0.00  0.00    +0.010 A 
ATOM     12  C   LIG    1        3.620   6.636   0.016  0.00  0.00    +0.020 A 
ENDBRANCH   5   7
BRANCH   1  14
ATOM     13  S   LIG    1        0.002  -0.004   0.002  0.00  0.00    -0.250 S 
ATOM     14  C   LIG    1       -0.020   1.595   0.011  0.00  0.00    +0.180 C 
ENDBRANCH   1  14
TORSDOF 2
ENDMDL
MODEL        9
REMARK  Name = ZINC000083310075
REMARK                            x       y       z     vdW  Elec       q    Type
REMARK                         _______ _______ _______ _____ _____    ______ ____
ROOT
ATOM      1  C   LIG    1       -1.002  -3.207  -2.249  0.00  0.00    -0.160 C 
ATOM      2  C   LIG    1       -1.772  -3.764  -3.173  0.00  0.00    +0.010 C 
ATOM      3  C   LIG    1       -1.660  -5.268  -3.105  0.00  0.00    +0.080 C 
ATOM      4  C   LIG    1       -0.668  -5.535  -1.957  0.00  0.00    +0.100 C 
ATOM      5  C   LIG    1       -2.634  -3.006  -4.150  0.00  0.00    +0.130 C 
ATOM      6  C   LIG    1       -0.295  -4.151  -1.472  0.00  0.00    +0.140 C 
ATOM      7  S   LIG    1        0.788  -3.792  -0.196  0.00  0.00    -0.410 S 
ENDROOT
BRANCH   1   8
ATOM      8  C   LIG    1       -0.887  -1.718  -2.053  0.00  0.00    +0.130 C 
BRANCH   8  10
ATOM      9  C   LIG    1       -1.397  -0.586   0.050  0.00  0.00    -0.020 C 
ATOM     10  C   LIG    1       -1.839  -1.279  -0.970  0.00  0.00    -0.070 C 
BRANCH   9  12
ATOM     11  C   LIG    1        0.027   1.424   0.341  0.00  0.00    +0.010 C 
ATOM     12  C   LIG    1        0.022  -0.080   0.058  0.00  0.00    +0.050 C 
ENDBRANCH   9  12
ENDBRANCH   8  10
ENDBRANCH   1   8
TORSDOF 3
ENDMDL
MODEL       10
REMARK  Name = ZINC000076495261
REMARK                            x       y       z     vdW  Elec       q    Type
REMARK                         _______ _______ _______ _____ _____    ______ ____
ROOT
ATOM      1  C   LIG    1        0.002  -0.004   0.002  0.00  0.00    +0.100 A 
ATOM      2  C   LIG    1        0.006  -0.691  -1.205  0.00  0.00    +0.020 A 
ATOM      3  C   LIG    1        0.025  -2.074  -1.219  0.00  0.00    +0.030 A 
ATOM      4  C   LIG    1        0.040  -2.781  -0.035  0.00  0.00    +0.030 A 
ATOM      5  C   LIG    1        0.036  -2.099   1.185  0.00  0.00    +0.060 A 
ATOM      6  C   LIG    1        0.023  -0.702   1.197  0.00  0.00    +0.050 A 
ENDROOT
BRANCH   1   7
ATOM      7  O   LIG    1       -0.016   1.355   0.009  0.00  0.00    -0.490 OA
ATOM      8  H   LIG    1        0.862   1.760   0.003  0.00  0.00    +0.390 HD
ENDBRANCH   1   7
BRANCH   5   9
ATOM      9  N   LIG    1        0.051  -2.795   2.361  0.00  0.00    -0.210 NA
ATOM     10  N   LIG    1        0.069  -4.085   2.346  0.00  0.00    -0.200 NA
BRANCH  10  11
ATOM     11  C   LIG    1        0.084  -4.782   3.522  0.00  0.00    +0.040 A 
ATOM     12  C   LIG    1        0.075  -4.100   4.742  0.00  0.00    +0.050 A 
ATOM     13  C   LIG    1        0.090  -4.810   5.925  0.00  0.00    +0.000 A 
ATOM     14  C   LIG    1        0.115  -6.193   5.905  0.00  0.00    +0.040 A 
ATOM     15  C   LIG    1        0.124  -6.875   4.701  0.00  0.00    +0.000 A 
ATOM     16  C   LIG    1        0.103  -6.179   3.510  0.00  0.00    +0.090 A 
ENDBRANCH  10  11
ENDBRANCH   5   9
TORSDOF 3
ENDMDL
MODEL       11
REMARK  Name = ZINC000584578338
REMARK                            x       y       z     vdW  Elec       q    Type
REMARK                         _______ _______ _______ _____ _____    ______ ____
ROOT
ATOM      1  C   LIG    1       -0.019   1.526   0.010  0.00  0.00    +0.040 C 
ATOM      2  C   LIG    1        0.002  -0.004   0.002  0.00  0.00    -0.060 C 
ATOM      3  C   LIG    1       -1.433  -0.534   0.013  0.00  0.00    +0.030 C 
ATOM      4  C   LIG    1       -1.413  -2.063   0.004  0.00  0.00    -0.020 C 
ATOM      5  C   LIG    1       -0.673  -2.570   1.244  0.00  0.00    +0.020 C 
ATOM      6  C   LIG    1        0.763  -2.041   1.233  0.00  0.00    +0.080 C 
ATOM      7  C   LIG    1        1.479  -2.534  -0.026  0.00  0.00    +0.050 C 
ATOM      8  C   LIG    1        0.739  -2.027  -1.265  0.00  0.00    -0.060 C 
ATOM      9  C   LIG    1        1.455  -2.521  -2.524  0.00  0.00    +0.040 C 
ATOM     10  C   LIG    1       -0.696  -2.557  -1.254  0.00  0.00    +0.030 C 
ATOM     11  C   LIG    1        0.718  -0.497  -1.257  0.00  0.00    +0.040 C 
ATOM     12  C   LIG    1        0.742  -0.511   1.242  0.00  0.00    +0.050 C 
ENDROOT
BRANCH   6  13
ATOM     13  N   LIG    1        1.471  -2.526   2.420  0.00  0.00    -0.190 NA
ATOM     14  N   LIG    1        0.886  -3.251   3.238  0.00  0.00    -0.380 NA
ATOM     15  H   LIG    1        1.355  -3.573   4.024  0.00  0.00    +0.360 HD
ENDBRANCH   6  13
TORSDOF 1
ENDMDL
MODEL       12
REMARK  Name = ZINC000115189260
REMARK                            x       y       z     vdW  Elec       q    Type
REMARK                         _______ _______ _______ _____ _____    ______ ____
ROOT
ATOM      1  S   LIG    1        0.002  -0.004   0.002  0.00  0.00    -0.480 S 
ATOM      2  C   LIG    1       -0.021   1.708   0.011  0.00  0.00    +0.170 C 
ATOM      3  C   LIG    1       -1.252   2.403   0.033  0.00  0.00    -0.020 C 
ATOM      4  C   LIG    1       -1.293   3.754   0.040  0.00  0.00    +0.160 C 
ATOM      5  C   LIG    1       -0.061   4.538   0.026  0.00  0.00    -0.100 A 
ATOM      6  C   LIG    1        1.187   3.875   0.005  0.00  0.00    -0.010 A 
ATOM      7  C   LIG    1        2.386   4.622  -0.007  0.00  0.00    -0.080 A 
ATOM      8  C   LIG    1        3.616   3.942  -0.027  0.00  0.00    +0.110 A 
ATOM      9  C   LIG    1        3.644   2.576  -0.035  0.00  0.00    -0.010 A 
ATOM     10  C   LIG    1        2.475   1.829  -0.023  0.00  0.00    +0.170 A 
ATOM     11  C   LIG    1        2.318   6.026   0.002  0.00  0.00    +0.090 A 
ATOM     12  C   LIG    1        1.094   6.656   0.022  0.00  0.00    +0.000 A 
ATOM     13  C   LIG    1       -0.089   5.933   0.034  0.00  0.00    +0.110 A 
ATOM     14  C   LIG    1        1.239   2.465   0.004  0.00  0.00    -0.120 A 
ENDROOT
TORSDOF 0
ENDMDL
MODEL       13
REMARK  Name = ZINC000250534246
REMARK                            x       y       z     vdW  Elec       q    Type
REMARK                         _______ _______ _______ _____ _____    ______ ____
ROOT
ATOM      1  C   LIG    1        0.002  -0.004   0.002  0.00  0.00    +0.100 A 
ATOM      2  C   LIG    1        0.006  -0.691  -1.205  0.00  0.00    +0.020 A 
ATOM      3  C   LIG    1        0.025  -2.074  -1.219  0.00  0.00    +0.030 A 
ATOM      4  C   LIG    1        0.040  -2.781  -0.035  0.00  0.00    +0.030 A 
ATOM      5  C   LIG    1        0.036  -2.099   1.185  0.00  0.00    +0.060 A 
ATOM      6  C   LIG    1        0.023  -0.702   1.197  0.00  0.00    +0.050 A 
ENDROOT
BRANCH   1   7
ATOM      7  O   LIG    1       -0.016   1.355   0.009  0.00  0.00    -0.490 OA
ATOM      8  H   LIG    1        0.862   1.760   0.003  0.00  0.00    +0.390 HD
ENDBRANCH   1   7
BRANCH   5   9
ATOM      9  N   LIG    1        0.051  -2.795   2.361  0.00  0.00    -0.210 NA
ATOM     10  N   LIG    1        0.069  -4.085   2.346  0.00  0.00    -0.200 NA
BRANCH  10  11
ATOM     11  C   LIG    1        0.084  -4.782   3.522  0.00  0.00    +0.040 A 
ATOM     12  C   LIG    1        0.075  -4.100   4.742  0.00  0.00    +0.050 A 
ATOM     13  C   LIG    1        0.090  -4.810   5.925  0.00  0.00    +0.000 A 
ATOM     14  C   LIG    1        0.115  -6.193   5.905  0.00  0.00    +0.040 A 
ATOM     15  C   LIG    1        0.124  -6.875   4.701  0.00  0.00    +0.000 A 
ATOM     16  C   LIG    1        0.103  -6.179   3.510  0.00  0.00    +0.090 A 
ENDBRANCH  10  11
ENDBRANCH   5   9
TORSDOF 3
ENDMDL
MODEL       14
REMARK  Name = ZINC000253618238
REMARK                            x       y       z     vdW  Elec       q    Type
REMARK                         _______ _______ _______ _____ _____    ______ ____
ROOT
ATOM      1  O   LIG    1        0.038   0.042   0.526  0.00  0.00    -0.520 OA
ATOM      2  C   LIG    1        0.005   1.244   0.303  0.00  0.00    +0.390 C 
ATOM      3  C   LIG    1       -1.213   1.946   0.325  0.00  0.00    -0.110 C 
ATOM      4  C   LIG    1       -1.232   3.283   0.075  0.00  0.00    +0.120 C 
ATOM      5  C   LIG    1       -0.064   3.990  -0.207  0.00  0.00    -0.030 C 
ATOM      6  C   LIG    1        1.147   3.376  -0.245  0.00  0.00    +0.130 C 
ATOM      7  C   LIG    1        1.241   1.988   0.013  0.00  0.00    -0.090 C 
ATOM      8  N   LIG    1        2.416   1.369  -0.019  0.00  0.00    -0.100 NA
ENDROOT
BRANCH   8   9
ATOM      9  N   LIG    1        2.471   0.084   0.077  0.00  0.00    -0.430 N 
ATOM     10  H   LIG    1        1.653  -0.437   0.091  0.00  0.00    +0.420 HD
BRANCH   9  11
ATOM     11  C   LIG    1        3.706  -0.556   0.161  0.00  0.00    +0.140 A 
ATOM     12  C   LIG    1        4.880   0.189   0.148  0.00  0.00    +0.010 A 
ATOM     13  C   LIG    1        6.101  -0.449   0.232  0.00  0.00    +0.040 A 
ATOM     14  C   LIG    1        6.158  -1.828   0.329  0.00  0.00    +0.000 A 
ATOM     15  C   LIG    1        4.992  -2.572   0.343  0.00  0.00    +0.040 A 
ATOM     16  C   LIG    1        3.767  -1.942   0.265  0.00  0.00    -0.010 A 
ENDBRANCH   9  11
ENDBRANCH   8   9
TORSDOF 2
ENDMDL
