MODEL        1
REMARK  Name = ZINC000001680048
REMARK                            x       y       z     vdW  Elec       q    Type
REMARK                         _______ _______ _______ _____ _____    ______ ____
ROOT
ATOM      1  C   LIG    1       -2.633  -2.524  -1.168  0.00  0.00    +0.000 C 
ENDROOT
BRANCH   1   2
ATOM      2  C   LIG    1       -1.319  -1.741  -1.176  0.00  0.00    +0.000 C 
BRANCH   2   3
ATOM      3  C   LIG    1       -1.293  -0.775   0.010  0.00  0.00    +0.040 C 
BRANCH   3   5
ATOM      4  C   LIG    1       -0.016   1.306   0.009  0.00  0.00    +0.000 C 
ATOM      5  C   LIG    1        0.002  -0.004   0.002  0.00  0.00    -0.050 C 
ENDBRANCH   3   5
ENDBRANCH   2   3
ENDBRANCH   1   2
BRANCH   1   6
ATOM      6  C   LIG    1       -2.659  -3.489  -2.355  0.00  0.00    +0.000 C 
BRANCH   6   7
ATOM      7  C   LIG    1       -3.974  -4.272  -2.346  0.00  0.00    +0.000 C 
BRANCH   7   8
ATOM      8  C   LIG    1       -4.000  -5.238  -3.533  0.00  0.00    +0.040 C 
BRANCH   8   9
ATOM      9  C   LIG    1       -5.295  -6.009  -3.525  0.00  0.00    -0.050 C 
ATOM     10  C   LIG    1       -6.066  -6.005  -4.583  0.00  0.00    +0.000 C 
ENDBRANCH   8   9
ENDBRANCH   7   8
ENDBRANCH   6   7
ENDBRANCH   1   6
TORSDOF 7
ENDMDL
MODEL        2
REMARK  Name = ZINC000001691021
REMARK                            x       y       z     vdW  Elec       q    Type
REMARK                         _______ _______ _______ _____ _____    ______ ____
ROOT
ATOM      1  C   LIG    1       -2.633  -2.524  -1.168  0.00  0.00    +0.000 C 
ENDROOT
BRANCH   1   2
ATOM      2  C   LIG    1       -1.319  -1.741  -1.176  0.00  0.00    +0.000 C 
BRANCH   2   3
ATOM      3  C   LIG    1       -1.293  -0.775   0.010  0.00  0.00    +0.040 C 
BRANCH   3   5
ATOM      4  C   LIG    1       -0.016   1.306   0.009  0.00  0.00    +0.000 C 
ATOM      5  C   LIG    1        0.002  -0.004   0.002  0.00  0.00    -0.050 C 
ENDBRANCH   3   5
ENDBRANCH   2   3
ENDBRANCH   1   2
BRANCH   1   6
ATOM      6  C   LIG    1       -2.659  -3.489  -2.355  0.00  0.00    +0.000 C 
BRANCH   6   7
ATOM      7  C   LIG    1       -3.974  -4.272  -2.346  0.00  0.00    +0.000 C 
BRANCH   7   8
ATOM      8  C   LIG    1       -4.000  -5.238  -3.533  0.00  0.00    +0.000 C 
BRANCH   8   9
ATOM      9  C   LIG    1       -5.314  -6.021  -3.525  0.00  0.00    -0.010 C 
ATOM     10  C   LIG    1       -5.340  -6.986  -4.711  0.00  0.00    +0.000 C 
ENDBRANCH   8   9
ENDBRANCH   7   8
ENDBRANCH   6   7
ENDBRANCH   1   6
TORSDOF 7
ENDMDL
MODEL        3
REMARK  Name = ZINC000001691586
REMARK                            x       y       z     vdW  Elec       q    Type
REMARK                         _______ _______ _______ _____ _____    ______ ____
ROOT
ATOM      1  C   LIG    1        2.811   5.587   0.005  0.00  0.00    +0.000 C 
ENDROOT
BRANCH   1   2
ATOM      2  C   LIG    1        2.832   4.057  -0.003  0.00  0.00    +0.000 C 
BRANCH   2   3
ATOM      3  C   LIG    1        1.397   3.527   0.008  0.00  0.00    +0.020 C 
BRANCH   3   4
ATOM      4  C   LIG    1        1.417   1.997  -0.001  0.00  0.00    +0.020 C 
BRANCH   4   5
ATOM      5  C   LIG    1       -0.018   1.468   0.010  0.00  0.00    +0.190 C 
BRANCH   5   7
ATOM      6  N   LIG    1        0.018  -1.140  -0.004  0.00  0.00    -0.440 NA
ATOM      7  C   LIG    1        0.002  -0.004   0.002  0.00  0.00    +0.200 C 
ENDBRANCH   5   7
ENDBRANCH   4   5
ENDBRANCH   3   4
ENDBRANCH   2   3
ENDBRANCH   1   2
BRANCH   1   8
ATOM      8  C   LIG    1        4.247   6.116  -0.006  0.00  0.00    +0.000 C 
BRANCH   8   9
ATOM      9  C   LIG    1        4.226   7.646   0.003  0.00  0.00    +0.020 C 
BRANCH   9  10
ATOM     10  C   LIG    1        5.661   8.176  -0.008  0.00  0.00    +0.020 C 
BRANCH  10  11
ATOM     11  C   LIG    1        5.641   9.705   0.000  0.00  0.00    +0.190 C 
BRANCH  11  12
ATOM     12  C   LIG    1        7.022  10.215  -0.010  0.00  0.00    +0.200 C 
ATOM     13  N   LIG    1        8.087  10.608  -0.018  0.00  0.00    -0.440 NA
ENDBRANCH  11  12
ENDBRANCH  10  11
ENDBRANCH   9  10
ENDBRANCH   8   9
ENDBRANCH   1   8
TORSDOF 10
ENDMDL
MODEL        4
REMARK  Name = ZINC000001690313
REMARK                            x       y       z     vdW  Elec       q    Type
REMARK                         _______ _______ _______ _____ _____    ______ ____
ROOT
ATOM      1  C   LIG    1        2.192  -4.544  -3.791  0.00  0.00    +0.030 C 
ENDROOT
BRANCH   1   2
ATOM      2  C   LIG    1        2.212  -6.051  -3.800  0.00  0.00    +0.350 C 
ATOM      3  O   LIG    1        1.706  -6.667  -2.892  0.00  0.00    -0.450 OA
BRANCH   2   4
ATOM      4  C   LIG    1        2.864  -6.789  -4.940  0.00  0.00    +0.030 C 
BRANCH   4   5
ATOM      5  C   LIG    1        2.747  -8.297  -4.705  0.00  0.00    -0.020 C 
ATOM      6  C   LIG    1        3.516  -9.044  -5.796  0.00  0.00    +0.020 C 
ATOM      7  C   LIG    1        1.274  -8.706  -4.747  0.00  0.00    +0.010 C 
ENDBRANCH   4   5
ENDBRANCH   2   4
ENDBRANCH   1   2
BRANCH   1   8
ATOM      8  C   LIG    1        1.476  -4.051  -2.532  0.00  0.00    +0.030 C 
BRANCH   8   9
ATOM      9  C   LIG    1        1.455  -2.521  -2.524  0.00  0.00    +0.000 C 
BRANCH   9  10
ATOM     10  C   LIG    1        0.739  -2.027  -1.265  0.00  0.00    +0.000 C 
BRANCH  10  11
ATOM     11  C   LIG    1        0.718  -0.497  -1.257  0.00  0.00    +0.000 C 
BRANCH  11  13
ATOM     12  C   LIG    1       -0.019   1.526   0.010  0.00  0.00    +0.000 C 
ATOM     13  C   LIG    1        0.002  -0.004   0.002  0.00  0.00    -0.010 C 
ENDBRANCH  11  13
ENDBRANCH  10  11
ENDBRANCH   9  10
ENDBRANCH   8   9
ENDBRANCH   1   8
TORSDOF 8
ENDMDL
MODEL        5
REMARK  Name = ZINC000001693268
REMARK                            x       y       z     vdW  Elec       q    Type
REMARK                         _______ _______ _______ _____ _____    ______ ____
ROOT
ATOM      1  C   LIG    1       -2.827  -4.123   0.007  0.00  0.00    +0.000 C 
ENDROOT
BRANCH   1   2
ATOM      2  C   LIG    1       -2.848  -2.593   0.015  0.00  0.00    +0.000 C 
BRANCH   2   3
ATOM      3  C   LIG    1       -1.413  -2.063   0.004  0.00  0.00    +0.000 C 
BRANCH   3   4
ATOM      4  C   LIG    1       -1.433  -0.534   0.013  0.00  0.00    +0.000 C 
BRANCH   4   6
ATOM      5  C   LIG    1       -0.019   1.526   0.010  0.00  0.00    +0.000 C 
ATOM      6  C   LIG    1        0.002  -0.004   0.002  0.00  0.00    -0.010 C 
ENDBRANCH   4   6
ENDBRANCH   3   4
ENDBRANCH   2   3
ENDBRANCH   1   2
BRANCH   1   7
ATOM      7  C   LIG    1       -4.263  -4.652   0.018  0.00  0.00    +0.020 C 
BRANCH   7   8
ATOM      8  C   LIG    1       -4.242  -6.182   0.009  0.00  0.00    +0.020 C 
BRANCH   8   9
ATOM      9  C   LIG    1       -5.677  -6.712   0.020  0.00  0.00    +0.190 C 
BRANCH   9  10
ATOM     10  C   LIG    1       -5.657  -8.184   0.012  0.00  0.00    +0.200 C 
ATOM     11  N   LIG    1       -5.642  -9.320   0.006  0.00  0.00    -0.440 NA
ENDBRANCH   9  10
ENDBRANCH   8   9
ENDBRANCH   7   8
ENDBRANCH   1   7
TORSDOF 8
ENDMDL
MODEL        6
REMARK  Name = ZINC000002040563
REMARK                            x       y       z     vdW  Elec       q    Type
REMARK                         _______ _______ _______ _____ _____    ______ ____
ROOT
ATOM      1  C   LIG    1        1.455  -2.521  -2.524  0.00  0.00    +0.000 C 
ENDROOT
BRANCH   1   2
ATOM      2  C   LIG    1        0.739  -2.027  -1.265  0.00  0.00    +0.000 C 
BRANCH   2   3
ATOM      3  C   LIG    1        0.718  -0.497  -1.257  0.00  0.00    +0.000 C 
BRANCH   3   5
ATOM      4  C   LIG    1       -0.019   1.526   0.010  0.00  0.00    +0.000 C 
ATOM      5  C   LIG    1        0.002  -0.004   0.002  0.00  0.00    -0.010 C 
ENDBRANCH   3   5
ENDBRANCH   2   3
ENDBRANCH   1   2
BRANCH   1   6
ATOM      6  C   LIG    1        1.476  -4.051  -2.532  0.00  0.00    +0.000 C 
BRANCH   6   7
ATOM      7  C   LIG    1        2.192  -4.544  -3.791  0.00  0.00    +0.020 C 
BRANCH   7   8
ATOM      8  C   LIG    1        2.213  -6.074  -3.800  0.00  0.00    -0.010 C 
BRANCH   8   9
ATOM      9  C   LIG    1        2.929  -6.567  -5.058  0.00  0.00    +0.200 C 
ATOM     10  F   LIG    1        2.948  -7.966  -5.066  0.00  0.00    -0.220 F 
ENDBRANCH   8   9
ENDBRANCH   7   8
ENDBRANCH   6   7
ENDBRANCH   1   6
TORSDOF 7
ENDMDL
MODEL        7
REMARK  Name = ZINC000002101359
REMARK                            x       y       z     vdW  Elec       q    Type
REMARK                         _______ _______ _______ _____ _____    ______ ____
ROOT
ATOM      1  C   LIG    1        0.875   0.246  -4.700  0.00  0.00    -0.070 C 
ATOM      2  C   LIG    1        1.746   1.236  -4.913  0.00  0.00    -0.050 C 
ATOM      3  C   LIG    1       -0.130  -0.116  -5.763  0.00  0.00    +0.080 C 
ENDROOT
BRANCH   2   4
ATOM      4  C   LIG    1        1.724   1.969  -6.177  0.00  0.00    +0.120 C 
ATOM      5  C   LIG    1        2.608   2.976  -6.393  0.00  0.00    -0.130 C 
BRANCH   5   6
ATOM      6  C   LIG    1        2.587   3.682  -7.611  0.00  0.00    +0.380 C 
ATOM      7  O   LIG    1        1.777   3.391  -8.468  0.00  0.00    -0.480 OA
ATOM      8  C   LIG    1        3.569   4.800  -7.851  0.00  0.00    +0.060 C 
ENDBRANCH   5   6
ENDBRANCH   2   4
BRANCH   1   9
ATOM      9  C   LIG    1        0.898  -0.510  -3.397  0.00  0.00    +0.060 C 
BRANCH   9  10
ATOM     10  C   LIG    1       -0.122   0.102  -2.434  0.00  0.00    +0.050 C 
BRANCH  10  13
ATOM     11  C   LIG    1        0.165   1.492   0.002  0.00  0.00    +0.080 C 
ATOM     12  C   LIG    1        0.092  -0.013  -0.005  0.00  0.00    -0.130 C 
ATOM     13  C   LIG    1       -0.099  -0.654  -1.131  0.00  0.00    -0.060 C 
ATOM     14  C   LIG    1        0.238  -0.780   1.284  0.00  0.00    +0.080 C 
ENDBRANCH  10  13
ENDBRANCH   9  10
ENDBRANCH   1   9
TORSDOF 5
ENDMDL
MODEL        8
REMARK  Name = ZINC000002162302
REMARK                            x       y       z     vdW  Elec       q    Type
REMARK                         _______ _______ _______ _____ _____    ______ ____
ROOT
ATOM      1  C   LIG    1       -0.018   1.468   0.010  0.00  0.00    +0.170 C 
ENDROOT
BRANCH   1   2
ATOM      2  C   LIG    1       -0.734   1.961   1.269  0.00  0.00    +0.010 C 
ATOM      3  C   LIG    1        0.006   1.454   2.508  0.00  0.00    +0.010 C 
ATOM      4  C   LIG    1       -0.710   1.948   3.767  0.00  0.00    +0.000 C 
ATOM      5  C   LIG    1       -0.731   3.478   3.776  0.00  0.00    +0.000 C 
ATOM      6  C   LIG    1       -1.471   3.984   2.536  0.00  0.00    +0.000 C 
ATOM      7  C   LIG    1       -0.755   3.491   1.277  0.00  0.00    +0.030 C 
ENDBRANCH   1   2
BRANCH   1   8
ATOM      8  C   LIG    1       -0.747   1.967  -1.211  0.00  0.00    -0.080 A 
ATOM      9  C   LIG    1       -2.069   1.621  -1.416  0.00  0.00    +0.010 A 
ATOM     10  C   LIG    1       -2.738   2.079  -2.536  0.00  0.00    +0.000 A 
ATOM     11  C   LIG    1       -2.084   2.883  -3.450  0.00  0.00    +0.010 A 
ATOM     12  C   LIG    1       -0.762   3.230  -3.245  0.00  0.00    +0.010 A 
ATOM     13  C   LIG    1       -0.095   2.776  -2.123  0.00  0.00    +0.020 A 
ENDBRANCH   1   8
BRANCH   1  15
ATOM     14  N   LIG    1        0.018  -1.140  -0.004  0.00  0.00    -0.430 NA
ATOM     15  C   LIG    1        0.002  -0.004   0.002  0.00  0.00    +0.210 C 
ENDBRANCH   1  15
TORSDOF 3
ENDMDL
MODEL        9
REMARK  Name = ZINC000002387474
REMARK                            x       y       z     vdW  Elec       q    Type
REMARK                         _______ _______ _______ _____ _____    ______ ____
ROOT
ATOM      1  C   LIG    1        1.397   3.527   0.008  0.00  0.00    -0.050 C 
ATOM      2  C   LIG    1        0.681   4.021   1.266  0.00  0.00    +0.020 C 
ATOM      3  C   LIG    1        0.660   5.550   1.275  0.00  0.00    -0.020 C 
ATOM      4  C   LIG    1       -0.080   6.057   0.035  0.00  0.00    +0.010 C 
ATOM      5  C   LIG    1        0.636   5.564  -1.223  0.00  0.00    -0.020 C 
ATOM      6  C   LIG    1        2.071   6.093  -1.234  0.00  0.00    +0.010 C 
ATOM      7  C   LIG    1        2.811   5.587   0.005  0.00  0.00    -0.020 C 
ATOM      8  C   LIG    1        2.095   6.080   1.264  0.00  0.00    +0.010 C 
ATOM      9  C   LIG    1        0.657   4.034  -1.232  0.00  0.00    +0.020 C 
ATOM     10  C   LIG    1        2.832   4.057  -0.003  0.00  0.00    +0.020 C 
ENDROOT
BRANCH   1  11
ATOM     11  C   LIG    1        1.417   1.997  -0.001  0.00  0.00    +0.030 C 
BRANCH  11  12
ATOM     12  C   LIG    1       -0.018   1.468   0.010  0.00  0.00    +0.190 C 
BRANCH  12  14
ATOM     13  N   LIG    1        0.018  -1.140  -0.004  0.00  0.00    -0.440 NA
ATOM     14  C   LIG    1        0.002  -0.004   0.002  0.00  0.00    +0.200 C 
ENDBRANCH  12  14
ENDBRANCH  11  12
ENDBRANCH   1  11
TORSDOF 3
ENDMDL
MODEL       10
REMARK  Name = ZINC000005712087
REMARK                            x       y       z     vdW  Elec       q    Type
REMARK                         _______ _______ _______ _____ _____    ______ ____
ROOT
ATOM      1  C   LIG    1        2.264  -4.584   3.704  0.00  0.00    +0.050 C 
ATOM      2  C   LIG    1        2.389  -6.121   3.651  0.00  0.00    +0.040 C 
ATOM      3  C   LIG    1        2.199  -6.556   5.127  0.00  0.00    +0.030 C 
ATOM      4  C   LIG    1        1.122  -5.563   5.629  0.00  0.00    +0.050 C 
ATOM      5  C   LIG    1        1.473  -4.249   4.952  0.00  0.00    +0.140 C 
ATOM      6  N   LIG    1        1.159  -3.078   5.359  0.00  0.00    -0.320 NA
ENDROOT
BRANCH   6   7
ATOM      7  O   LIG    1        0.411  -2.920   6.551  0.00  0.00    -0.420 OA
ATOM      8  H   LIG    1        0.222  -2.000   6.778  0.00  0.00    +0.400 HD
ENDBRANCH   6   7
BRANCH   1   9
ATOM      9  C   LIG    1        1.524  -4.077   2.464  0.00  0.00    +0.020 C 
BRANCH   9  10
ATOM     10  C   LIG    1        1.503  -2.548   2.473  0.00  0.00    +0.010 C 
BRANCH  10  11
ATOM     11  C   LIG    1        0.763  -2.041   1.233  0.00  0.00    +0.000 C 
BRANCH  11  12
ATOM     12  C   LIG    1        0.742  -0.511   1.242  0.00  0.00    +0.000 C 
BRANCH  12  14
ATOM     13  C   LIG    1       -0.019   1.526   0.010  0.00  0.00    +0.000 C 
ATOM     14  C   LIG    1        0.002  -0.004   0.002  0.00  0.00    -0.010 C 
ENDBRANCH  12  14
ENDBRANCH  11  12
ENDBRANCH  10  11
ENDBRANCH   9  10
ENDBRANCH   1   9
TORSDOF 6
ENDMDL
MODEL       11
REMARK  Name = ZINC000005712121
REMARK                            x       y       z     vdW  Elec       q    Type
REMARK                         _______ _______ _______ _____ _____    ______ ____
ROOT
ATOM      1  C   LIG    1        2.264  -4.584   3.704  0.00  0.00    +0.050 C 
ATOM      2  C   LIG    1        2.196  -6.124   3.765  0.00  0.00    +0.040 C 
ATOM      3  C   LIG    1        3.589  -6.533   4.307  0.00  0.00    +0.030 C 
ATOM      4  C   LIG    1        4.525  -5.506   3.622  0.00  0.00    +0.050 C 
ATOM      5  C   LIG    1        3.729  -4.212   3.620  0.00  0.00    +0.140 C 
ATOM      6  N   LIG    1        4.209  -3.027   3.559  0.00  0.00    -0.320 NA
ENDROOT
BRANCH   6   7
ATOM      7  O   LIG    1        5.609  -2.833   3.483  0.00  0.00    -0.420 OA
ATOM      8  H   LIG    1        5.876  -1.905   3.441  0.00  0.00    +0.400 HD
ENDBRANCH   6   7
BRANCH   1   9
ATOM      9  C   LIG    1        1.524  -4.077   2.464  0.00  0.00    +0.020 C 
BRANCH   9  10
ATOM     10  C   LIG    1        1.503  -2.548   2.473  0.00  0.00    +0.010 C 
BRANCH  10  11
ATOM     11  C   LIG    1        0.763  -2.041   1.233  0.00  0.00    +0.000 C 
BRANCH  11  12
ATOM     12  C   LIG    1        0.742  -0.511   1.242  0.00  0.00    +0.000 C 
BRANCH  12  14
ATOM     13  C   LIG    1       -0.019   1.526   0.010  0.00  0.00    +0.000 C 
ATOM     14  C   LIG    1        0.002  -0.004   0.002  0.00  0.00    -0.010 C 
ENDBRANCH  12  14
ENDBRANCH  11  12
ENDBRANCH  10  11
ENDBRANCH   9  10
ENDBRANCH   1   9
TORSDOF 6
ENDMDL
MODEL       12
REMARK  Name = ZINC000002579234
REMARK                            x       y       z     vdW  Elec       q    Type
REMARK                         _______ _______ _______ _____ _____    ______ ____
ROOT
ATOM      1  C   LIG    1        1.950  -2.862  -3.394  0.00  0.00    +0.010 C 
ENDROOT
BRANCH   1   2
ATOM      2  C   LIG    1        1.930  -1.332  -3.386  0.00  0.00    +0.150 C 
BRANCH   2   4
ATOM      3  C   LIG    1        0.691  -0.479  -1.209  0.00  0.00    -0.190 C 
ATOM      4  C   LIG    1        1.241  -0.857  -2.175  0.00  0.00    -0.190 C 
BRANCH   3   6
ATOM      5  C   LIG    1       -0.019   1.526   0.010  0.00  0.00    +0.040 C 
ATOM      6  C   LIG    1        0.002  -0.004   0.002  0.00  0.00    +0.150 C 
ENDBRANCH   3   6
ENDBRANCH   2   4
ENDBRANCH   1   2
BRANCH   1   7
ATOM      7  C   LIG    1        2.667  -3.355  -4.653  0.00  0.00    +0.000 C 
BRANCH   7   8
ATOM      8  C   LIG    1        2.687  -4.885  -4.662  0.00  0.00    +0.000 C 
BRANCH   8   9
ATOM      9  C   LIG    1        3.403  -5.379  -5.920  0.00  0.00    +0.000 C 
BRANCH   9  10
ATOM     10  C   LIG    1        3.424  -6.909  -5.929  0.00  0.00    -0.010 C 
ATOM     11  C   LIG    1        4.140  -7.402  -7.188  0.00  0.00    +0.000 C 
ENDBRANCH   9  10
ENDBRANCH   8   9
ENDBRANCH   7   8
ENDBRANCH   1   7
TORSDOF 7
ENDMDL
MODEL       13
REMARK  Name = ZINC000003649855
REMARK                            x       y       z     vdW  Elec       q    Type
REMARK                         _______ _______ _______ _____ _____    ______ ____
ROOT
ATOM      1  C   LIG    1       -4.263  -4.652   0.018  0.00  0.00    +0.020 C 
ENDROOT
BRANCH   1   2
ATOM      2  C   LIG    1       -2.827  -4.123   0.007  0.00  0.00    +0.000 C 
BRANCH   2   3
ATOM      3  C   LIG    1       -2.848  -2.593   0.015  0.00  0.00    +0.000 C 
BRANCH   3   4
ATOM      4  C   LIG    1       -1.413  -2.063   0.004  0.00  0.00    +0.000 C 
BRANCH   4   5
ATOM      5  C   LIG    1       -1.433  -0.534   0.013  0.00  0.00    +0.000 C 
BRANCH   5   7
ATOM      6  C   LIG    1       -0.019   1.526   0.010  0.00  0.00    +0.000 C 
ATOM      7  C   LIG    1        0.002  -0.004   0.002  0.00  0.00    -0.010 C 
ENDBRANCH   5   7
ENDBRANCH   4   5
ENDBRANCH   3   4
ENDBRANCH   2   3
ENDBRANCH   1   2
BRANCH   1   8
ATOM      8  C   LIG    1       -4.242  -6.182   0.009  0.00  0.00    +0.000 C 
BRANCH   8   9
ATOM      9  C   LIG    1       -5.677  -6.712   0.020  0.00  0.00    +0.280 C 
BRANCH   9  10
ATOM     10  N   LIG    1       -5.657  -8.177   0.012  0.00  0.00    -0.460 N 
ATOM     11  C   LIG    1       -5.651  -8.983  -1.094  0.00  0.00    +0.110 A 
ATOM     12  C   LIG    1       -5.631 -10.254  -0.650  0.00  0.00    +0.140 A 
ATOM     13  N   LIG    1       -5.625 -10.225   0.691  0.00  0.00    -0.500 NA
ATOM     14  C   LIG    1       -5.636  -8.984   1.095  0.00  0.00    +0.380 A 
ENDBRANCH   9  10
ENDBRANCH   8   9
ENDBRANCH   1   8
TORSDOF 8
ENDMDL
MODEL       14
REMARK  Name = ZINC000003881456
REMARK                            x       y       z     vdW  Elec       q    Type
REMARK                         _______ _______ _______ _____ _____    ______ ____
ROOT
ATOM      1  C   LIG    1       -2.416  -2.903   0.054  0.00  0.00    -0.120 C 
ATOM      2  C   LIG    1       -2.271  -4.212  -0.066  0.00  0.00    -0.090 C 
ATOM      3  C   LIG    1       -3.414  -5.161  -0.276  0.00  0.00    +0.080 C 
ATOM      4  C   LIG    1       -4.736  -4.484   0.090  0.00  0.00    +0.020 C 
ATOM      5  C   LIG    1       -4.799  -3.124  -0.616  0.00  0.00    +0.030 C 
ATOM      6  C   LIG    1       -0.878  -4.782   0.015  0.00  0.00    +0.070 C 
ATOM      7  C   LIG    1       -3.744  -2.205   0.008  0.00  0.00    -0.020 C 
ATOM      8  C   LIG    1       -3.614  -0.935  -0.835  0.00  0.00    +0.040 C 
ATOM      9  C   LIG    1       -4.177  -1.827   1.426  0.00  0.00    +0.040 C 
ENDROOT
BRANCH   1  11
ATOM     10  C   LIG    1       -0.392  -2.338   1.296  0.00  0.00    -0.130 C 
ATOM     11  C   LIG    1       -1.217  -2.091   0.247  0.00  0.00    +0.140 C 
BRANCH  10  13
ATOM     12  C   LIG    1        1.704  -1.860   2.620  0.00  0.00    +0.060 C 
ATOM     13  C   LIG    1        0.788  -1.587   1.455  0.00  0.00    +0.380 C 
ATOM     14  O   LIG    1        1.068  -0.718   0.653  0.00  0.00    -0.470 OA
ENDBRANCH  10  13
ENDBRANCH   1  11
TORSDOF 2
ENDMDL
MODEL       15
REMARK  Name = ZINC000004362826
REMARK                            x       y       z     vdW  Elec       q    Type
REMARK                         _______ _______ _______ _____ _____    ______ ____
ROOT
ATOM      1  C   LIG    1        0.002  -0.004   0.002  0.00  0.00    +0.160 C 
ATOM      2  C   LIG    1        0.656  -0.522   1.260  0.00  0.00    -0.100 A 
ATOM      3  C   LIG    1        1.923  -0.359   1.779  0.00  0.00    +0.020 A 
ATOM      4  C   LIG    1        2.262  -0.960   2.978  0.00  0.00    +0.020 A 
ATOM      5  C   LIG    1        1.332  -1.725   3.658  0.00  0.00    +0.020 A 
ATOM      6  C   LIG    1        0.062  -1.893   3.146  0.00  0.00    +0.040 A 
ATOM      7  C   LIG    1       -0.287  -1.290   1.937  0.00  0.00    -0.040 A 
ATOM      8  C   LIG    1       -1.558  -1.302   1.170  0.00  0.00    -0.040 A 
ATOM      9  C   LIG    1       -2.782  -1.921   1.429  0.00  0.00    +0.030 A 
ATOM     10  C   LIG    1       -3.828  -1.775   0.542  0.00  0.00    +0.020 A 
ATOM     11  C   LIG    1       -3.670  -1.018  -0.605  0.00  0.00    +0.020 A 
ATOM     12  C   LIG    1       -2.459  -0.402  -0.868  0.00  0.00    +0.050 A 
ATOM     13  C   LIG    1       -1.407  -0.543   0.013  0.00  0.00    -0.080 A 
ENDROOT
BRANCH   1  14
ATOM     14  S   LIG    1       -0.022   1.810   0.012  0.00  0.00    -0.200 S 
ATOM     15  H   LIG    1        1.284   2.130   0.001  0.00  0.00    +0.090 HD
ENDBRANCH   1  14
TORSDOF 1
ENDMDL
MODEL       16
REMARK  Name = ZINC000004582604
REMARK                            x       y       z     vdW  Elec       q    Type
REMARK                         _______ _______ _______ _____ _____    ______ ____
ROOT
ATOM      1  C   LIG    1       -3.945  -1.405  -2.238  0.00  0.00    -0.110 C 
ATOM      2  C   LIG    1       -3.958  -2.259  -3.211  0.00  0.00    -0.050 C 
ATOM      3  C   LIG    1       -4.614  -2.011  -4.538  0.00  0.00    +0.080 C 
ATOM      4  C   LIG    1       -4.872  -0.515  -4.728  0.00  0.00    -0.070 C 
ATOM      5  C   LIG    1       -5.566   0.021  -3.469  0.00  0.00    +0.030 C 
ATOM      6  C   LIG    1       -4.580  -0.047  -2.303  0.00  0.00    +0.080 C 
ENDROOT
BRANCH   4   7
ATOM      7  C   LIG    1       -5.756  -0.302  -5.929  0.00  0.00    +0.450 C 
ATOM      8  O   LIG    1       -5.362   0.359  -6.859  0.00  0.00    -0.460 OA
ENDBRANCH   4   7
BRANCH   1   9
ATOM      9  C   LIG    1       -3.253  -1.801  -0.959  0.00  0.00    +0.090 C 
BRANCH   9  11
ATOM     10  C   LIG    1       -1.412  -0.526   0.013  0.00  0.00    -0.040 C 
ATOM     11  C   LIG    1       -1.839  -1.279  -0.970  0.00  0.00    -0.040 C 
BRANCH  10  13
ATOM     12  C   LIG    1       -0.019   1.526   0.010  0.00  0.00    +0.030 C 
ATOM     13  C   LIG    1        0.002  -0.004   0.002  0.00  0.00    +0.000 C 
ATOM     14  C   LIG    1        0.742  -0.511   1.242  0.00  0.00    +0.030 C 
ENDBRANCH  10  13
ENDBRANCH   9  11
ENDBRANCH   1   9
TORSDOF 4
ENDMDL
MODEL       17
REMARK  Name = ZINC000004582603
REMARK                            x       y       z     vdW  Elec       q    Type
REMARK                         _______ _______ _______ _____ _____    ______ ____
ROOT
ATOM      1  C   LIG    1       -3.945  -1.405  -2.238  0.00  0.00    -0.110 C 
ATOM      2  C   LIG    1       -3.958  -2.259  -3.211  0.00  0.00    -0.050 C 
ATOM      3  C   LIG    1       -4.596  -2.004  -4.545  0.00  0.00    +0.080 C 
ATOM      4  C   LIG    1       -5.564  -0.822  -4.449  0.00  0.00    -0.070 C 
ATOM      5  C   LIG    1       -4.840   0.343  -3.761  0.00  0.00    +0.030 C 
ATOM      6  C   LIG    1       -4.580  -0.047  -2.303  0.00  0.00    +0.080 C 
ENDROOT
BRANCH   4   7
ATOM      7  C   LIG    1       -5.997  -0.409  -5.832  0.00  0.00    +0.450 C 
ATOM      8  O   LIG    1       -7.166  -0.441  -6.133  0.00  0.00    -0.460 OA
ENDBRANCH   4   7
BRANCH   1   9
ATOM      9  C   LIG    1       -3.253  -1.801  -0.959  0.00  0.00    +0.090 C 
BRANCH   9  11
ATOM     10  C   LIG    1       -1.412  -0.526   0.013  0.00  0.00    -0.040 C 
ATOM     11  C   LIG    1       -1.839  -1.279  -0.970  0.00  0.00    -0.040 C 
BRANCH  10  13
ATOM     12  C   LIG    1       -0.019   1.526   0.010  0.00  0.00    +0.030 C 
ATOM     13  C   LIG    1        0.002  -0.004   0.002  0.00  0.00    +0.000 C 
ATOM     14  C   LIG    1        0.742  -0.511   1.242  0.00  0.00    +0.020 C 
ENDBRANCH  10  13
ENDBRANCH   9  11
ENDBRANCH   1   9
TORSDOF 4
ENDMDL
MODEL       18
REMARK  Name = ZINC000001562201
REMARK                            x       y       z     vdW  Elec       q    Type
REMARK                         _______ _______ _______ _____ _____    ______ ____
ROOT
ATOM      1  C   LIG    1        2.832   4.057  -0.003  0.00  0.00    +0.000 C 
ENDROOT
BRANCH   1   2
ATOM      2  C   LIG    1        1.397   3.527   0.008  0.00  0.00    +0.000 C 
BRANCH   2   3
ATOM      3  C   LIG    1        1.417   1.997  -0.001  0.00  0.00    +0.020 C 
BRANCH   3   4
ATOM      4  C   LIG    1       -0.018   1.468   0.010  0.00  0.00    +0.170 C 
BRANCH   4   6
ATOM      5  C   LIG    1        0.018  -1.178  -0.004  0.00  0.00    +0.010 C 
ATOM      6  C   LIG    1        0.002  -0.004   0.002  0.00  0.00    -0.190 C 
ENDBRANCH   4   6
ENDBRANCH   3   4
ENDBRANCH   2   3
ENDBRANCH   1   2
BRANCH   1   7
ATOM      7  C   LIG    1        2.811   5.587   0.005  0.00  0.00    +0.000 C 
BRANCH   7   8
ATOM      8  C   LIG    1        4.247   6.116  -0.006  0.00  0.00    +0.000 C 
BRANCH   8   9
ATOM      9  C   LIG    1        4.226   7.646   0.003  0.00  0.00    +0.000 C 
BRANCH   9  10
ATOM     10  C   LIG    1        5.661   8.176  -0.008  0.00  0.00    -0.010 C 
ATOM     11  C   LIG    1        5.641   9.705   0.000  0.00  0.00    +0.000 C 
ENDBRANCH   9  10
ENDBRANCH   8   9
ENDBRANCH   7   8
ENDBRANCH   1   7
TORSDOF 8
ENDMDL
MODEL       19
REMARK  Name = ZINC000005195498
REMARK                            x       y       z     vdW  Elec       q    Type
REMARK                         _______ _______ _______ _____ _____    ______ ____
ROOT
ATOM      1  C   LIG    1        0.822  -0.443  -3.351  0.00  0.00    +0.060 C 
ENDROOT
BRANCH   1   2
ATOM      2  C   LIG    1        0.817   0.316  -4.653  0.00  0.00    -0.090 C 
ATOM      3  C   LIG    1        1.739   1.216  -4.889  0.00  0.00    -0.040 C 
ATOM      4  C   LIG    1       -0.248   0.040  -5.682  0.00  0.00    +0.080 C 
BRANCH   3   5
ATOM      5  C   LIG    1        1.665   2.061  -6.135  0.00  0.00    +0.140 C 
BRANCH   5   6
ATOM      6  S   LIG    1        1.401   3.796  -5.675  0.00  0.00    -0.240 S 
ATOM      7  H   LIG    1        1.356   4.421  -6.864  0.00  0.00    +0.090 HD
ENDBRANCH   5   6
ENDBRANCH   3   5
ENDBRANCH   1   2
BRANCH   1   8
ATOM      8  C   LIG    1       -0.113   0.247  -2.355  0.00  0.00    +0.050 C 
BRANCH   8  11
ATOM      9  C   LIG    1        0.364   1.603   0.071  0.00  0.00    +0.080 C 
ATOM     10  C   LIG    1        0.170   0.109   0.066  0.00  0.00    -0.130 C 
ATOM     11  C   LIG    1       -0.108  -0.512  -1.053  0.00  0.00    -0.060 C 
ATOM     12  C   LIG    1        0.297  -0.671   1.349  0.00  0.00    +0.070 C 
ENDBRANCH   8  11
ENDBRANCH   1   8
TORSDOF 5
ENDMDL
MODEL       20
REMARK  Name = ZINC000005842678
REMARK                            x       y       z     vdW  Elec       q    Type
REMARK                         _______ _______ _______ _____ _____    ______ ____
ROOT
ATOM      1  C   LIG    1       -2.531  -2.858   0.011  0.00  0.00    +0.070 C 
ATOM      2  C   LIG    1       -2.611  -3.709  -1.223  0.00  0.00    -0.120 C 
ATOM      3  C   LIG    1       -2.397  -4.986  -1.238  0.00  0.00    -0.040 C 
ATOM      4  C   LIG    1       -2.048  -5.795  -0.023  0.00  0.00    +0.060 C 
ATOM      5  C   LIG    1       -1.574  -4.875   1.104  0.00  0.00    +0.030 C 
ATOM      6  C   LIG    1       -2.962  -3.036  -2.524  0.00  0.00    +0.070 C 
ATOM      7  C   LIG    1       -2.589  -3.739   1.260  0.00  0.00    -0.060 C 
ATOM      8  C   LIG    1       -3.994  -4.324   1.413  0.00  0.00    +0.030 C 
ATOM      9  C   LIG    1       -2.238  -2.903   2.493  0.00  0.00    +0.030 C 
ENDROOT
BRANCH   1  11
ATOM     10  C   LIG    1       -1.254  -0.752   0.010  0.00  0.00    -0.120 C 
ATOM     11  C   LIG    1       -1.236  -2.087   0.003  0.00  0.00    +0.090 C 
BRANCH  10  13
ATOM     12  C   LIG    1       -0.018   1.503   0.010  0.00  0.00    +0.060 C 
ATOM     13  C   LIG    1        0.002  -0.004   0.002  0.00  0.00    +0.380 C 
ATOM     14  O   LIG    1        1.061  -0.596  -0.011  0.00  0.00    -0.470 OA
ENDBRANCH  10  13
ENDBRANCH   1  11
TORSDOF 2
ENDMDL
MODEL       21
REMARK  Name = ZINC000018189423
REMARK                            x       y       z     vdW  Elec       q    Type
REMARK                         _______ _______ _______ _____ _____    ______ ____
ROOT
ATOM      1  C   LIG    1       -2.531  -2.858   0.011  0.00  0.00    +0.070 C 
ATOM      2  C   LIG    1       -2.587  -3.722   1.236  0.00  0.00    -0.120 C 
ATOM      3  C   LIG    1       -3.003  -4.948   1.241  0.00  0.00    -0.040 C 
ATOM      4  C   LIG    1       -3.476  -5.680   0.019  0.00  0.00    +0.060 C 
ATOM      5  C   LIG    1       -3.799  -4.686  -1.099  0.00  0.00    +0.030 C 
ATOM      6  C   LIG    1       -2.133  -3.126   2.543  0.00  0.00    +0.060 C 
ATOM      7  C   LIG    1       -2.613  -3.726  -1.247  0.00  0.00    -0.050 C 
ATOM      8  C   LIG    1       -1.319  -4.527  -1.407  0.00  0.00    +0.030 C 
ATOM      9  C   LIG    1       -2.824  -2.832  -2.470  0.00  0.00    +0.040 C 
ENDROOT
BRANCH   1  11
ATOM     10  C   LIG    1       -1.254  -0.752   0.010  0.00  0.00    -0.120 C 
ATOM     11  C   LIG    1       -1.236  -2.087   0.003  0.00  0.00    +0.090 C 
BRANCH  10  13
ATOM     12  C   LIG    1       -0.018   1.503   0.010  0.00  0.00    +0.060 C 
ATOM     13  C   LIG    1        0.002  -0.004   0.002  0.00  0.00    +0.380 C 
ATOM     14  O   LIG    1        1.061  -0.596  -0.011  0.00  0.00    -0.470 OA
ENDBRANCH  10  13
ENDBRANCH   1  11
TORSDOF 2
ENDMDL
MODEL       22
REMARK  Name = ZINC000019089969
REMARK                            x       y       z     vdW  Elec       q    Type
REMARK                         _______ _______ _______ _____ _____    ______ ____
ROOT
ATOM      1  C   LIG    1       -1.413  -2.063   0.004  0.00  0.00    -0.050 C 
ATOM      2  C   LIG    1       -0.673  -2.570   1.244  0.00  0.00    +0.010 C 
ATOM      3  C   LIG    1       -0.652  -4.100   1.236  0.00  0.00    -0.020 C 
ATOM      4  C   LIG    1        0.064  -4.594  -0.023  0.00  0.00    +0.010 C 
ATOM      5  C   LIG    1       -0.676  -4.087  -1.263  0.00  0.00    -0.020 C 
ATOM      6  C   LIG    1       -2.111  -4.616  -1.252  0.00  0.00    +0.010 C 
ATOM      7  C   LIG    1       -2.827  -4.123   0.007  0.00  0.00    -0.020 C 
ATOM      8  C   LIG    1       -2.087  -4.630   1.246  0.00  0.00    +0.010 C 
ATOM      9  C   LIG    1       -0.696  -2.557  -1.254  0.00  0.00    +0.010 C 
ATOM     10  C   LIG    1       -2.848  -2.593   0.015  0.00  0.00    +0.020 C 
ENDROOT
BRANCH   1  11
ATOM     11  C   LIG    1       -1.433  -0.534   0.013  0.00  0.00    +0.070 C 
BRANCH  11  12
ATOM     12  C   LIG    1        0.002  -0.004   0.002  0.00  0.00    +0.110 C 
BRANCH  12  13
ATOM     13  S   LIG    1       -0.022   1.810   0.012  0.00  0.00    -0.260 S 
ATOM     14  H   LIG    1        1.284   2.130   0.001  0.00  0.00    +0.090 HD
ENDBRANCH  12  13
ENDBRANCH  11  12
ENDBRANCH   1  11
TORSDOF 3
ENDMDL
MODEL       23
REMARK  Name = ZINC000001649082
REMARK                            x       y       z     vdW  Elec       q    Type
REMARK                         _______ _______ _______ _____ _____    ______ ____
ROOT
ATOM      1  C   LIG    1        1.562  -2.520  -2.457  0.00  0.00    +0.170 C 
ENDROOT
BRANCH   1   2
ATOM      2  C   LIG    1        1.582  -4.027  -2.466  0.00  0.00    -0.080 A 
ATOM      3  C   LIG    1        2.103  -4.717  -1.387  0.00  0.00    +0.010 A 
ATOM      4  C   LIG    1        2.122  -6.099  -1.395  0.00  0.00    +0.000 A 
ATOM      5  C   LIG    1        1.619  -6.791  -2.481  0.00  0.00    +0.010 A 
ATOM      6  C   LIG    1        1.098  -6.101  -3.559  0.00  0.00    +0.010 A 
ATOM      7  C   LIG    1        1.075  -4.719  -3.550  0.00  0.00    +0.020 A 
ENDBRANCH   1   2
BRANCH   1   8
ATOM      8  C   LIG    1        0.739  -2.027  -1.265  0.00  0.00    +0.000 C 
ATOM      9  C   LIG    1       -0.692  -2.556  -1.380  0.00  0.00    +0.030 C 
BRANCH   8  10
ATOM     10  C   LIG    1        0.718  -0.497  -1.257  0.00  0.00    +0.010 C 
BRANCH  10  12
ATOM     11  C   LIG    1       -0.019   1.526   0.010  0.00  0.00    +0.000 C 
ATOM     12  C   LIG    1        0.002  -0.004   0.002  0.00  0.00    +0.010 C 
ENDBRANCH  10  12
ENDBRANCH   8  10
ENDBRANCH   1   8
BRANCH   1  13
ATOM     13  C   LIG    1        2.939  -2.011  -2.347  0.00  0.00    +0.210 C 
ATOM     14  N   LIG    1        4.001  -1.618  -2.261  0.00  0.00    -0.430 NA
ENDBRANCH   1  13
TORSDOF 5
ENDMDL
MODEL       24
REMARK  Name = ZINC000100021942
REMARK                            x       y       z     vdW  Elec       q    Type
REMARK                         _______ _______ _______ _____ _____    ______ ____
ROOT
ATOM      1  C   LIG    1       -0.755   3.491   1.277  0.00  0.00    +0.020 C 
ENDROOT
BRANCH   1   2
ATOM      2  C   LIG    1       -0.734   1.961   1.269  0.00  0.00    +0.010 C 
BRANCH   2   3
ATOM      3  C   LIG    1       -0.018   1.468   0.010  0.00  0.00    +0.240 C 
ATOM      4  C   LIG    1        1.417   1.997  -0.001  0.00  0.00    +0.080 C 
BRANCH   3   6
ATOM      5  C   LIG    1        0.018  -1.178  -0.004  0.00  0.00    +0.040 C 
ATOM      6  C   LIG    1        0.002  -0.004   0.002  0.00  0.00    -0.220 C 
ENDBRANCH   3   6
BRANCH   3   7
ATOM      7  O   LIG    1       -0.709   1.941  -1.148  0.00  0.00    -0.550 OA
ATOM      8  H   LIG    1       -1.627   1.644  -1.206  0.00  0.00    +0.380 HD
ENDBRANCH   3   7
ENDBRANCH   2   3
ENDBRANCH   1   2
BRANCH   1   9
ATOM      9  C   LIG    1       -1.471   3.984   2.536  0.00  0.00    +0.000 C 
BRANCH   9  10
ATOM     10  C   LIG    1       -1.492   5.514   2.545  0.00  0.00    +0.000 C 
BRANCH  10  11
ATOM     11  C   LIG    1       -2.208   6.008   3.803  0.00  0.00    +0.000 C 
BRANCH  11  12
ATOM     12  C   LIG    1       -2.228   7.537   3.812  0.00  0.00    +0.000 C 
BRANCH  12  13
ATOM     13  C   LIG    1       -2.945   8.031   5.071  0.00  0.00    +0.000 C 
BRANCH  13  14
ATOM     14  C   LIG    1       -2.965   9.561   5.079  0.00  0.00    -0.010 C 
ATOM     15  C   LIG    1       -3.682  10.054   6.338  0.00  0.00    +0.000 C 
ENDBRANCH  13  14
ENDBRANCH  12  13
ENDBRANCH  11  12
ENDBRANCH  10  11
ENDBRANCH   9  10
ENDBRANCH   1   9
TORSDOF 10
ENDMDL
MODEL       25
REMARK  Name = ZINC000002390318
REMARK                            x       y       z     vdW  Elec       q    Type
REMARK                         _______ _______ _______ _____ _____    ______ ____
ROOT
ATOM      1  C   LIG    1       -0.671   3.501  -1.286  0.00  0.00    +0.020 C 
ENDROOT
BRANCH   1   2
ATOM      2  C   LIG    1       -0.758   1.975  -1.229  0.00  0.00    +0.000 C 
BRANCH   2   3
ATOM      3  C   LIG    1       -0.018   1.468   0.010  0.00  0.00    +0.240 C 
ATOM      4  C   LIG    1        1.417   1.997  -0.001  0.00  0.00    +0.080 C 
BRANCH   3   6
ATOM      5  C   LIG    1        0.018  -1.178  -0.004  0.00  0.00    +0.040 C 
ATOM      6  C   LIG    1        0.002  -0.004   0.002  0.00  0.00    -0.220 C 
ENDBRANCH   3   6
BRANCH   3   7
ATOM      7  O   LIG    1       -0.687   1.929   1.186  0.00  0.00    -0.550 OA
ATOM      8  H   LIG    1       -1.604   1.630   1.259  0.00  0.00    +0.380 HD
ENDBRANCH   3   7
ENDBRANCH   2   3
ENDBRANCH   1   2
BRANCH   1   9
ATOM      9  C   LIG    1       -1.411   4.008  -2.526  0.00  0.00    +0.000 C 
BRANCH   9  10
ATOM     10  C   LIG    1       -1.325   5.534  -2.583  0.00  0.00    +0.000 C 
BRANCH  10  11
ATOM     11  C   LIG    1       -2.065   6.041  -3.823  0.00  0.00    +0.000 C 
BRANCH  11  12
ATOM     12  C   LIG    1       -1.978   7.568  -3.880  0.00  0.00    +0.000 C 
BRANCH  12  13
ATOM     13  C   LIG    1       -2.718   8.075  -5.119  0.00  0.00    +0.000 C 
BRANCH  13  14
ATOM     14  C   LIG    1       -2.631   9.601  -5.176  0.00  0.00    -0.010 C 
ATOM     15  C   LIG    1       -3.371  10.108  -6.416  0.00  0.00    +0.000 C 
ENDBRANCH  13  14
ENDBRANCH  12  13
ENDBRANCH  11  12
ENDBRANCH  10  11
ENDBRANCH   9  10
ENDBRANCH   1   9
TORSDOF 10
ENDMDL
MODEL       26
REMARK  Name = ZINC000001649084
REMARK                            x       y       z     vdW  Elec       q    Type
REMARK                         _______ _______ _______ _____ _____    ______ ____
ROOT
ATOM      1  C   LIG    1        1.562  -2.520  -2.457  0.00  0.00    +0.170 C 
ENDROOT
BRANCH   1   2
ATOM      2  C   LIG    1        2.971  -1.999  -2.344  0.00  0.00    -0.080 A 
ATOM      3  C   LIG    1        3.746  -2.333  -1.249  0.00  0.00    +0.010 A 
ATOM      4  C   LIG    1        5.039  -1.855  -1.145  0.00  0.00    +0.000 A 
ATOM      5  C   LIG    1        5.558  -1.044  -2.137  0.00  0.00    +0.010 A 
ATOM      6  C   LIG    1        4.783  -0.710  -3.232  0.00  0.00    +0.010 A 
ATOM      7  C   LIG    1        3.492  -1.191  -3.338  0.00  0.00    +0.020 A 
ENDBRANCH   1   2
BRANCH   1   8
ATOM      8  C   LIG    1        0.739  -2.027  -1.265  0.00  0.00    +0.000 C 
ATOM      9  C   LIG    1       -0.692  -2.556  -1.380  0.00  0.00    +0.020 C 
BRANCH   8  10
ATOM     10  C   LIG    1        0.718  -0.497  -1.257  0.00  0.00    +0.030 C 
BRANCH  10  12
ATOM     11  C   LIG    1       -0.019   1.526   0.010  0.00  0.00    +0.000 C 
ATOM     12  C   LIG    1        0.002  -0.004   0.002  0.00  0.00    -0.010 C 
ENDBRANCH  10  12
ENDBRANCH   8  10
ENDBRANCH   1   8
BRANCH   1  13
ATOM     13  C   LIG    1        1.582  -3.991  -2.466  0.00  0.00    +0.210 C 
ATOM     14  N   LIG    1        1.597  -5.127  -2.472  0.00  0.00    -0.430 NA
ENDBRANCH   1  13
TORSDOF 5
ENDMDL
MODEL       27
REMARK  Name = ZINC000169743311
REMARK                            x       y       z     vdW  Elec       q    Type
REMARK                         _______ _______ _______ _____ _____    ______ ____
ROOT
ATOM      1 SI   LIG    1        0.825   1.689   0.181  0.00  0.00    +1.160 Si
ENDROOT
BRANCH   1   2
ATOM      2  C   LIG    1       -0.319   2.491   1.413  0.00  0.00    -0.300 C 
ATOM      3  C   LIG    1       -0.647   3.913   0.953  0.00  0.00    +0.040 C 
ATOM      4  C   LIG    1        0.360   2.542   2.783  0.00  0.00    +0.020 C 
ENDBRANCH   1   2
BRANCH   1   5
ATOM      5  C   LIG    1       -0.119   1.284  -1.372  0.00  0.00    -0.290 C 
ATOM      6  C   LIG    1       -1.454   0.634  -1.003  0.00  0.00    +0.030 C 
ATOM      7  C   LIG    1        0.699   0.316  -2.229  0.00  0.00    +0.010 C 
ENDBRANCH   1   5
BRANCH   1   8
ATOM      8  C   LIG    1        2.218   2.857  -0.225  0.00  0.00    -0.290 C 
ATOM      9  C   LIG    1        3.014   2.309  -1.411  0.00  0.00    +0.020 C 
ATOM     10  C   LIG    1        3.139   2.995   0.989  0.00  0.00    +0.020 C 
ENDBRANCH   1   8
BRANCH   1  12
ATOM     11  C   LIG    1        1.975  -0.896   1.384  0.00  0.00    +0.000 C 
ATOM     12  C   LIG    1        1.536   0.091   0.925  0.00  0.00    -0.420 C 
ENDBRANCH   1  12
TORSDOF 4
ENDMDL
MODEL       28
REMARK  Name = ZINC000002555805
REMARK                            x       y       z     vdW  Elec       q    Type
REMARK                         _______ _______ _______ _____ _____    ______ ____
ROOT
ATOM      1  C   LIG    1       -0.017   1.428   0.010  0.00  0.00    +0.000 A 
ATOM      2  C   LIG    1       -1.233   2.112   0.031  0.00  0.00    +0.040 A 
ATOM      3  C   LIG    1       -1.245   3.491   0.039  0.00  0.00    +0.010 A 
ATOM      4  C   LIG    1       -0.055   4.197   0.026  0.00  0.00    -0.070 A 
ATOM      5  C   LIG    1        1.154   3.524   0.005  0.00  0.00    +0.010 A 
ATOM      6  C   LIG    1        1.180   2.145   0.002  0.00  0.00    +0.040 A 
ENDROOT
BRANCH   1   8
ATOM      7  C   LIG    1        0.018  -1.178  -0.004  0.00  0.00    +0.060 C 
ATOM      8  C   LIG    1        0.002  -0.004   0.002  0.00  0.00    -0.150 C 
ENDBRANCH   1   8
BRANCH   4   9
ATOM      9  C   LIG    1       -0.075   5.703   0.035  0.00  0.00    +0.060 C 
BRANCH   9  10
ATOM     10  C   LIG    1       -0.061   6.205   1.481  0.00  0.00    +0.010 C 
BRANCH  10  11
ATOM     11  C   LIG    1       -0.082   7.734   1.490  0.00  0.00    +0.000 C 
BRANCH  11  12
ATOM     12  C   LIG    1       -0.068   8.236   2.936  0.00  0.00    +0.000 C 
BRANCH  12  13
ATOM     13  C   LIG    1       -0.089   9.766   2.945  0.00  0.00    -0.010 C 
ATOM     14  C   LIG    1       -0.075  10.267   4.391  0.00  0.00    +0.000 C 
ENDBRANCH  12  13
ENDBRANCH  11  12
ENDBRANCH  10  11
ENDBRANCH   9  10
ENDBRANCH   4   9
TORSDOF 6
ENDMDL
MODEL       29
REMARK  Name = ZINC000253529442
REMARK                            x       y       z     vdW  Elec       q    Type
REMARK                         _______ _______ _______ _____ _____    ______ ____
ROOT
ATOM      1  N   LIG    1        0.058  -4.142  -0.021  0.00  0.00    -0.480 NA
ATOM      2  C   LIG    1        0.868  -4.786   0.770  0.00  0.00    +0.310 C 
ENDROOT
BRANCH   1   7
ATOM      3  C   LIG    1       -0.018   1.503   0.010  0.00  0.00    +0.090 C 
ATOM      4  C   LIG    1        0.002  -0.004   0.002  0.00  0.00    -0.090 A 
ATOM      5  C   LIG    1        0.006  -0.686  -1.202  0.00  0.00    +0.020 A 
ATOM      6  C   LIG    1        0.024  -2.065  -1.217  0.00  0.00    +0.030 A 
ATOM      7  C   LIG    1        0.039  -2.773  -0.013  0.00  0.00    +0.070 A 
ATOM      8  C   LIG    1        0.036  -2.078   1.198  0.00  0.00    -0.030 A 
ATOM      9  C   LIG    1        0.023  -0.699   1.198  0.00  0.00    +0.020 A 
ENDBRANCH   1   7
BRANCH   2  10
ATOM     10  C   LIG    1        0.888  -6.259   0.761  0.00  0.00    -0.080 A 
ATOM     11  C   LIG    1        0.043  -6.968  -0.097  0.00  0.00    +0.060 A 
ATOM     12  C   LIG    1        0.067  -8.347  -0.099  0.00  0.00    +0.000 A 
ATOM     13  C   LIG    1        0.925  -9.029   0.746  0.00  0.00    +0.030 A 
ATOM     14  C   LIG    1        1.765  -8.333   1.599  0.00  0.00    +0.000 A 
ATOM     15  C   LIG    1        1.756  -6.954   1.608  0.00  0.00    +0.040 A 
ENDBRANCH   2  10
TORSDOF 2
ENDMDL
MODEL       30
REMARK  Name = ZINC000018206031
REMARK                            x       y       z     vdW  Elec       q    Type
REMARK                         _______ _______ _______ _____ _____    ______ ____
ROOT
ATOM      1  N   LIG    1        0.020  -0.038   2.398  0.00  0.00    -0.470 NA
ATOM      2  C   LIG    1       -0.069  -0.697   3.519  0.00  0.00    +0.310 C 
ENDROOT
BRANCH   1   9
ATOM      3  C   LIG    1        2.002   0.653   0.482  0.00  0.00    +0.110 C 
ATOM      4  C   LIG    1        0.964  -0.409   0.227  0.00  0.00    -0.070 A 
ATOM      5  C   LIG    1        0.953  -1.091  -0.972  0.00  0.00    +0.020 A 
ATOM      6  C   LIG    1        0.001  -2.067  -1.208  0.00  0.00    +0.010 A 
ATOM      7  C   LIG    1       -0.946  -2.366  -0.244  0.00  0.00    +0.020 A 
ATOM      8  C   LIG    1       -0.947  -1.692   0.960  0.00  0.00    -0.030 A 
ATOM      9  C   LIG    1        0.015  -0.710   1.207  0.00  0.00    +0.080 A 
ENDBRANCH   1   9
BRANCH   2  10
ATOM     10  C   LIG    1       -0.183   0.031   4.794  0.00  0.00    -0.080 A 
ATOM     11  C   LIG    1       -0.202   1.428   4.806  0.00  0.00    +0.060 A 
ATOM     12  C   LIG    1       -0.309   2.102   6.005  0.00  0.00    +0.000 A 
ATOM     13  C   LIG    1       -0.398   1.399   7.193  0.00  0.00    +0.030 A 
ATOM     14  C   LIG    1       -0.379   0.015   7.189  0.00  0.00    +0.000 A 
ATOM     15  C   LIG    1       -0.279  -0.673   5.998  0.00  0.00    +0.040 A 
ENDBRANCH   2  10
TORSDOF 2
ENDMDL
MODEL       31
REMARK  Name = ZINC000100061738
REMARK                            x       y       z     vdW  Elec       q    Type
REMARK                         _______ _______ _______ _____ _____    ______ ____
ROOT
ATOM      1  C   LIG    1       -0.099   1.508  -0.026  0.00  0.00    +0.140 C 
ATOM      2  C   LIG    1        0.322   0.061  -0.016  0.00  0.00    +0.240 C 
ATOM      3  N   LIG    1        0.315  -0.612   1.100  0.00  0.00    -0.480 NA
ENDROOT
BRANCH   2   4
ATOM      4  C   LIG    1        0.740  -0.593  -1.268  0.00  0.00    -0.120 A 
ATOM      5  C   LIG    1        0.058  -0.331  -2.459  0.00  0.00    +0.040 A 
ATOM      6  C   LIG    1        0.456  -0.947  -3.627  0.00  0.00    +0.010 A 
ATOM      7  C   LIG    1        1.527  -1.823  -3.621  0.00  0.00    +0.030 A 
ATOM      8  C   LIG    1        2.207  -2.088  -2.446  0.00  0.00    +0.010 A 
ATOM      9  C   LIG    1        1.825  -1.475  -1.271  0.00  0.00    +0.040 A 
ENDBRANCH   2   4
BRANCH   3  10
ATOM     10  C   LIG    1        0.554  -1.959   1.088  0.00  0.00    +0.090 A 
ATOM     11  C   LIG    1       -0.228  -2.803   0.296  0.00  0.00    -0.020 A 
ATOM     12  C   LIG    1        0.018  -4.161   0.289  0.00  0.00    +0.020 A 
ATOM     13  C   LIG    1        1.037  -4.686   1.064  0.00  0.00    -0.010 A 
ATOM     14  C   LIG    1        1.816  -3.856   1.850  0.00  0.00    +0.030 A 
ATOM     15  C   LIG    1        1.585  -2.496   1.862  0.00  0.00    +0.000 A 
ENDBRANCH   3  10
TORSDOF 2
ENDMDL
MODEL       32
REMARK  Name = ZINC000013410406
REMARK                            x       y       z     vdW  Elec       q    Type
REMARK                         _______ _______ _______ _____ _____    ______ ____
ROOT
ATOM      1  C   LIG    1       -0.018   1.503   0.010  0.00  0.00    +0.080 C 
ATOM      2  C   LIG    1        0.002  -0.004   0.002  0.00  0.00    +0.230 C 
ATOM      3  N   LIG    1        0.022  -0.661   1.127  0.00  0.00    -0.480 NA
ENDROOT
BRANCH   2   4
ATOM      4  C   LIG    1       -0.000  -0.734  -1.277  0.00  0.00    -0.070 A 
ATOM      5  C   LIG    1       -0.015  -0.032  -2.486  0.00  0.00    +0.040 A 
ATOM      6  C   LIG    1       -0.017  -0.722  -3.680  0.00  0.00    +0.000 A 
ATOM      7  C   LIG    1       -0.004  -2.105  -3.684  0.00  0.00    +0.030 A 
ATOM      8  C   LIG    1        0.010  -2.807  -2.491  0.00  0.00    +0.000 A 
ATOM      9  C   LIG    1        0.019  -2.131  -1.289  0.00  0.00    +0.070 A 
ENDBRANCH   2   4
BRANCH   3  10
ATOM     10  C   LIG    1        0.024   0.017   2.315  0.00  0.00    +0.080 A 
ATOM     11  C   LIG    1        0.860   1.121   2.492  0.00  0.00    -0.020 A 
ATOM     12  C   LIG    1        0.857   1.799   3.693  0.00  0.00    +0.010 A 
ATOM     13  C   LIG    1        0.028   1.388   4.721  0.00  0.00    -0.010 A 
ATOM     14  C   LIG    1       -0.803   0.295   4.554  0.00  0.00    +0.020 A 
ATOM     15  C   LIG    1       -0.815  -0.390   3.356  0.00  0.00    +0.030 A 
ENDBRANCH   3  10
TORSDOF 2
ENDMDL
MODEL       33
REMARK  Name = ZINC000037678117
REMARK                            x       y       z     vdW  Elec       q    Type
REMARK                         _______ _______ _______ _____ _____    ______ ____
ROOT
ATOM      1  C   LIG    1        0.731  -0.503   1.223  0.00  0.00    -0.070 A 
ATOM      2  C   LIG    1        2.050  -0.148   1.434  0.00  0.00    +0.010 A 
ATOM      3  C   LIG    1        2.719  -0.605   2.553  0.00  0.00    +0.040 A 
ATOM      4  C   LIG    1        2.068  -1.419   3.463  0.00  0.00    -0.030 A 
ATOM      5  C   LIG    1        0.748  -1.775   3.252  0.00  0.00    +0.040 A 
ATOM      6 CL   LIG    1        2.908  -1.994   4.870  0.00  0.00    -0.070 Cl
ATOM      7  C   LIG    1        0.078  -1.312   2.135  0.00  0.00    +0.050 A 
ENDROOT
BRANCH   1   8
ATOM      8  C   LIG    1        0.002  -0.004   0.002  0.00  0.00    +0.160 C 
BRANCH   8   9
ATOM      9  C   LIG    1        0.718  -0.497  -1.257  0.00  0.00    -0.060 C 
ATOM     10  C   LIG    1       -0.002  -1.537  -2.118  0.00  0.00    +0.030 C 
ATOM     11  C   LIG    1        0.128  -0.094  -2.609  0.00  0.00    +0.050 C 
ENDBRANCH   8   9
BRANCH   8  12
ATOM     12  S   LIG    1       -0.022   1.810   0.012  0.00  0.00    -0.220 S 
ATOM     13  H   LIG    1        1.284   2.130   0.001  0.00  0.00    +0.090 HD
ENDBRANCH   8  12
ENDBRANCH   1   8
TORSDOF 3
ENDMDL
MODEL       34
REMARK  Name = ZINC000005480272
REMARK                            x       y       z     vdW  Elec       q    Type
REMARK                         _______ _______ _______ _____ _____    ______ ____
ROOT
ATOM      1  C   LIG    1        0.579  -2.010  -0.983  0.00  0.00    +0.100 A 
ATOM      2  C   LIG    1        0.906  -2.712   0.177  0.00  0.00    +0.000 A 
ATOM      3  C   LIG    1        0.924  -4.091   0.165  0.00  0.00    +0.070 A 
ATOM      4  C   LIG    1        0.618  -4.779  -0.996  0.00  0.00    -0.040 A 
ATOM      5  C   LIG    1        0.291  -4.088  -2.152  0.00  0.00    -0.020 A 
ATOM      6 CL   LIG    1       -0.092  -4.958  -3.604  0.00  0.00    -0.040 Cl
ATOM      7 CL   LIG    1        0.642  -6.515  -1.005  0.00  0.00    -0.040 Cl
ATOM      8  C   LIG    1        0.265  -2.708  -2.149  0.00  0.00    +0.060 A 
ENDROOT
BRANCH   1  11
ATOM      9  C   LIG    1       -0.018   1.503   0.010  0.00  0.00    +0.130 C 
ATOM     10  C   LIG    1        0.002  -0.004   0.002  0.00  0.00    +0.280 C 
ATOM     11  N   LIG    1        0.560  -0.637  -0.975  0.00  0.00    -0.490 NA
ENDBRANCH   1  11
TORSDOF 1
ENDMDL
MODEL       35
REMARK  Name = ZINC000071782857
REMARK                            x       y       z     vdW  Elec       q    Type
REMARK                         _______ _______ _______ _____ _____    ______ ____
ROOT
ATOM      1  C   LIG    1        0.095  -1.173   0.094  0.00  0.00    -0.190 C 
ATOM      2  C   LIG    1        0.002  -0.004   0.002  0.00  0.00    -0.190 C 
ATOM      3  C   LIG    1       -0.018   1.468   0.010  0.00  0.00    +0.160 C 
ATOM      4  C   LIG    1        1.418   1.997  -0.001  0.00  0.00    +0.020 C 
ATOM      5  C   LIG    1        1.802   2.459   1.406  0.00  0.00    +0.020 C 
ATOM      6  C   LIG    1        3.293   2.208   1.637  0.00  0.00    +0.020 C 
ATOM      7  C   LIG    1        3.552   2.007   3.131  0.00  0.00    +0.160 C 
ATOM      8  C   LIG    1        3.698   0.569   3.414  0.00  0.00    -0.190 C 
ATOM      9  C   LIG    1        3.781  -0.600   3.508  0.00  0.00    -0.190 C 
ATOM     10  C   LIG    1        3.823  -2.071   3.482  0.00  0.00    +0.160 C 
ATOM     11  C   LIG    1        2.395  -2.622   3.502  0.00  0.00    +0.020 C 
ATOM     12  C   LIG    1        2.008  -3.088   2.098  0.00  0.00    +0.020 C 
ATOM     13  C   LIG    1        0.521  -2.817   1.862  0.00  0.00    +0.020 C 
ATOM     14  C   LIG    1        0.271  -2.609   0.367  0.00  0.00    +0.160 C 
ENDROOT
TORSDOF 0
ENDMDL
MODEL       36
REMARK  Name = ZINC000001649083
REMARK                            x       y       z     vdW  Elec       q    Type
REMARK                         _______ _______ _______ _____ _____    ______ ____
ROOT
ATOM      1  C   LIG    1        1.343  -2.522  -2.581  0.00  0.00    +0.170 C 
ENDROOT
BRANCH   1   2
ATOM      2  C   LIG    1        0.510  -2.025  -3.734  0.00  0.00    -0.080 A 
ATOM      3  C   LIG    1       -0.825  -2.372  -3.823  0.00  0.00    +0.010 A 
ATOM      4  C   LIG    1       -1.589  -1.915  -4.881  0.00  0.00    +0.000 A 
ATOM      5  C   LIG    1       -1.018  -1.112  -5.850  0.00  0.00    +0.010 A 
ATOM      6  C   LIG    1        0.317  -0.764  -5.761  0.00  0.00    +0.010 A 
ATOM      7  C   LIG    1        1.080  -1.217  -4.700  0.00  0.00    +0.020 A 
ENDBRANCH   1   2
BRANCH   1   8
ATOM      8  C   LIG    1        0.739  -2.027  -1.265  0.00  0.00    +0.000 C 
ATOM      9  C   LIG    1        1.584  -2.532  -0.094  0.00  0.00    +0.020 C 
BRANCH   8  10
ATOM     10  C   LIG    1        0.718  -0.497  -1.257  0.00  0.00    +0.030 C 
BRANCH  10  12
ATOM     11  C   LIG    1       -0.019   1.526   0.010  0.00  0.00    +0.000 C 
ATOM     12  C   LIG    1        0.002  -0.004   0.002  0.00  0.00    -0.010 C 
ENDBRANCH  10  12
ENDBRANCH   8  10
ENDBRANCH   1   8
BRANCH   1  13
ATOM     13  C   LIG    1        1.363  -3.994  -2.589  0.00  0.00    +0.210 C 
ATOM     14  N   LIG    1        1.378  -5.130  -2.595  0.00  0.00    -0.430 NA
ENDBRANCH   1  13
TORSDOF 5
ENDMDL
MODEL       37
REMARK  Name = ZINC000020476597
REMARK                            x       y       z     vdW  Elec       q    Type
REMARK                         _______ _______ _______ _____ _____    ______ ____
ROOT
ATOM      1  C   LIG    1       -1.412  -0.526   0.013  0.00  0.00    -0.070 A 
ATOM      2  C   LIG    1       -2.259  -0.204   1.056  0.00  0.00    +0.010 A 
ATOM      3  C   LIG    1       -3.556  -0.683   1.066  0.00  0.00    +0.030 A 
ATOM      4  C   LIG    1       -4.006  -1.482   0.032  0.00  0.00    -0.090 A 
ATOM      5  C   LIG    1       -3.159  -1.802  -1.012  0.00  0.00    -0.010 A 
ATOM      6  C   LIG    1       -1.863  -1.321  -1.024  0.00  0.00    +0.010 A 
ENDROOT
BRANCH   1   8
ATOM      7  C   LIG    1       -0.019   1.526   0.010  0.00  0.00    +0.030 C 
ATOM      8  C   LIG    1        0.002  -0.004   0.002  0.00  0.00    +0.020 C 
ATOM      9  C   LIG    1        0.742  -0.511   1.242  0.00  0.00    +0.030 C 
ENDBRANCH   1   8
BRANCH   4  10
ATOM     10  C   LIG    1       -5.419  -2.004   0.043  0.00  0.00    +0.130 C 
ATOM     11  C   LIG    1       -6.158  -1.503  -1.199  0.00  0.00    +0.060 C 
BRANCH  10  12
ATOM     12  S   LIG    1       -5.394  -3.818   0.040  0.00  0.00    -0.230 S 
ATOM     13  H   LIG    1       -4.744  -4.110  -1.100  0.00  0.00    +0.090 HD
ENDBRANCH  10  12
ENDBRANCH   4  10
TORSDOF 3
ENDMDL
MODEL       38
REMARK  Name = ZINC000001649085
REMARK                            x       y       z     vdW  Elec       q    Type
REMARK                         _______ _______ _______ _____ _____    ______ ____
ROOT
ATOM      1  C   LIG    1        1.343  -2.522  -2.581  0.00  0.00    +0.170 C 
ENDROOT
BRANCH   1   2
ATOM      2  C   LIG    1        1.363  -4.029  -2.589  0.00  0.00    -0.080 A 
ATOM      3  C   LIG    1        0.181  -4.737  -2.483  0.00  0.00    +0.010 A 
ATOM      4  C   LIG    1        0.200  -6.119  -2.491  0.00  0.00    +0.000 A 
ATOM      5  C   LIG    1        1.401  -6.793  -2.605  0.00  0.00    +0.010 A 
ATOM      6  C   LIG    1        2.583  -6.085  -2.712  0.00  0.00    +0.010 A 
ATOM      7  C   LIG    1        2.564  -4.703  -2.709  0.00  0.00    +0.020 A 
ENDBRANCH   1   2
BRANCH   1   8
ATOM      8  C   LIG    1        0.739  -2.027  -1.265  0.00  0.00    +0.000 C 
ATOM      9  C   LIG    1        1.584  -2.532  -0.094  0.00  0.00    +0.030 C 
BRANCH   8  10
ATOM     10  C   LIG    1        0.718  -0.497  -1.257  0.00  0.00    +0.010 C 
BRANCH  10  12
ATOM     11  C   LIG    1       -0.019   1.526   0.010  0.00  0.00    +0.000 C 
ATOM     12  C   LIG    1        0.002  -0.004   0.002  0.00  0.00    +0.010 C 
ENDBRANCH  10  12
ENDBRANCH   8  10
ENDBRANCH   1   8
BRANCH   1  13
ATOM     13  C   LIG    1        0.529  -2.036  -3.708  0.00  0.00    +0.210 C 
ATOM     14  N   LIG    1       -0.098  -1.661  -4.577  0.00  0.00    -0.430 NA
ENDBRANCH   1  13
TORSDOF 5
ENDMDL
MODEL       39
REMARK  Name = ZINC000000067272
REMARK                            x       y       z     vdW  Elec       q    Type
REMARK                         _______ _______ _______ _____ _____    ______ ____
ROOT
ATOM      1  N   LIG    1       -0.072   5.485   0.032  0.00  0.00    -0.480 NA
ATOM      2  C   LIG    1        0.728   6.143   0.822  0.00  0.00    +0.320 C 
ENDROOT
BRANCH   1   7
ATOM      3  F   LIG    1        0.002  -0.004   0.002  0.00  0.00    -0.140 F 
ATOM      4  C   LIG    1       -0.016   1.347   0.009  0.00  0.00    +0.090 A 
ATOM      5  C   LIG    1       -1.227   2.021   0.030  0.00  0.00    +0.000 A 
ATOM      6  C   LIG    1       -1.252   3.399   0.038  0.00  0.00    +0.060 A 
ATOM      7  C   LIG    1       -0.054   4.117   0.024  0.00  0.00    +0.070 A 
ATOM      8  C   LIG    1        1.164   3.432   0.004  0.00  0.00    +0.010 A 
ATOM      9  C   LIG    1        1.176   2.053   0.002  0.00  0.00    +0.000 A 
ENDBRANCH   1   7
BRANCH   2  10
ATOM     10  C   LIG    1        0.708   7.616   0.830  0.00  0.00    -0.090 A 
ATOM     11  C   LIG    1       -0.173   8.311  -0.005  0.00  0.00    +0.070 A 
ATOM     12  C   LIG    1       -0.186   9.690   0.009  0.00  0.00    +0.000 A 
ATOM     13  C   LIG    1        0.669  10.385   0.846  0.00  0.00    +0.030 A 
ATOM     14  C   LIG    1        1.544   9.704   1.674  0.00  0.00    +0.000 A 
ATOM     15  C   LIG    1        1.565   8.325   1.676  0.00  0.00    +0.050 A 
ENDBRANCH   2  10
TORSDOF 2
ENDMDL
MODEL       40
REMARK  Name = ZINC000005081675
REMARK                            x       y       z     vdW  Elec       q    Type
REMARK                         _______ _______ _______ _____ _____    ______ ____
ROOT
ATOM      1  C   LIG    1       -0.019   1.525   0.010  0.00  0.00    +0.020 C 
ATOM      2  C   LIG    1        1.413   2.063  -0.000  0.00  0.00    +0.030 C 
ATOM      3  C   LIG    1        2.128   1.634   1.285  0.00  0.00    +0.090 C 
ATOM      4  C   LIG    1        2.028   0.130   1.411  0.00  0.00    +0.190 C 
ATOM      5  C   LIG    1        0.664  -0.511   1.288  0.00  0.00    +0.040 C 
ATOM      6  N   LIG    1        3.083  -0.589   1.620  0.00  0.00    -0.390 NA
ATOM      7  C   LIG    1        0.002  -0.004   0.002  0.00  0.00    +0.020 C 
ENDROOT
BRANCH   6   8
ATOM      8  N   LIG    1        2.970  -1.981   1.734  0.00  0.00    -0.390 NA
ATOM      9  C   LIG    1        4.024  -2.700   1.943  0.00  0.00    +0.190 C 
ATOM     10  C   LIG    1        5.388  -2.059   2.074  0.00  0.00    +0.040 C 
ATOM     11  C   LIG    1        6.046  -2.570   3.359  0.00  0.00    +0.020 C 
ATOM     12  C   LIG    1        6.068  -4.099   3.345  0.00  0.00    +0.020 C 
ATOM     13  C   LIG    1        4.636  -4.639   3.350  0.00  0.00    +0.020 C 
ATOM     14  C   LIG    1        3.925  -4.205   2.069  0.00  0.00    +0.090 C 
ENDBRANCH   6   8
TORSDOF 1
ENDMDL
MODEL       41
REMARK  Name = ZINC000001557099
REMARK                            x       y       z     vdW  Elec       q    Type
REMARK                         _______ _______ _______ _____ _____    ______ ____
ROOT
ATOM      1  C   LIG    1       -0.019   1.526   0.010  0.00  0.00    +0.010 C 
ATOM      2  C   LIG    1        1.417   2.055  -0.000  0.00  0.00    +0.010 C 
ATOM      3  C   LIG    1        1.619   3.006   1.181  0.00  0.00    +0.010 C 
ATOM      4  C   LIG    1        2.553   2.357   2.204  0.00  0.00    +0.010 C 
ATOM      5  C   LIG    1        1.893   2.377   3.583  0.00  0.00    +0.020 C 
ATOM      6  C   LIG    1        2.732   1.553   4.562  0.00  0.00    +0.040 C 
ATOM      7  C   LIG    1        2.571   0.065   4.244  0.00  0.00    +0.110 C 
ATOM      8  O   LIG    1        2.199  -0.807   5.314  0.00  0.00    -0.350 OA
ATOM      9  C   LIG    1        1.171  -0.541   4.357  0.00  0.00    +0.110 C 
ATOM     10  C   LIG    1        0.799  -1.662   3.384  0.00  0.00    +0.040 C 
ATOM     11  C   LIG    1        1.029  -1.188   1.948  0.00  0.00    +0.020 C 
ATOM     12  C   LIG    1       -0.244  -0.525   1.419  0.00  0.00    +0.010 C 
ATOM     13  C   LIG    1        0.002  -0.004   0.002  0.00  0.00    +0.010 C 
ENDROOT
TORSDOF 0
ENDMDL
MODEL       42
REMARK  Name = ZINC000001557102
REMARK                            x       y       z     vdW  Elec       q    Type
REMARK                         _______ _______ _______ _____ _____    ______ ____
ROOT
ATOM      1  C   LIG    1       -0.019   1.526   0.010  0.00  0.00    +0.010 C 
ATOM      2  C   LIG    1        1.417   2.055  -0.000  0.00  0.00    +0.010 C 
ATOM      3  C   LIG    1        1.826   2.450   1.420  0.00  0.00    +0.000 C 
ATOM      4  C   LIG    1        2.856   1.451   1.950  0.00  0.00    +0.010 C 
ATOM      5  C   LIG    1        2.932   1.556   3.475  0.00  0.00    +0.020 C 
ATOM      6  C   LIG    1        3.231   0.178   4.067  0.00  0.00    +0.030 C 
ATOM      7  C   LIG    1        1.917  -0.559   4.332  0.00  0.00    +0.110 C 
ATOM      8  O   LIG    1        1.989  -1.887   4.853  0.00  0.00    -0.360 OA
ATOM      9  C   LIG    1        1.608  -1.792   3.479  0.00  0.00    +0.110 C 
ATOM     10  C   LIG    1        0.145  -2.062   3.122  0.00  0.00    +0.030 C 
ATOM     11  C   LIG    1       -0.045  -1.915   1.611  0.00  0.00    +0.020 C 
ATOM     12  C   LIG    1       -0.614  -0.530   1.300  0.00  0.00    +0.010 C 
ATOM     13  C   LIG    1        0.002  -0.004   0.002  0.00  0.00    +0.010 C 
ENDROOT
TORSDOF 0
ENDMDL
MODEL       43
REMARK  Name = ZINC000001557100
REMARK                            x       y       z     vdW  Elec       q    Type
REMARK                         _______ _______ _______ _____ _____    ______ ____
ROOT
ATOM      1  C   LIG    1       -0.019   1.526   0.010  0.00  0.00    +0.010 C 
ATOM      2  C   LIG    1        1.416   2.057  -0.000  0.00  0.00    +0.010 C 
ATOM      3  C   LIG    1        1.540   3.210   0.998  0.00  0.00    +0.010 C 
ATOM      4  C   LIG    1        2.853   3.076   1.772  0.00  0.00    +0.010 C 
ATOM      5  C   LIG    1        2.562   3.085   3.275  0.00  0.00    +0.010 C 
ATOM      6  C   LIG    1        2.876   1.708   3.864  0.00  0.00    +0.040 C 
ATOM      7  C   LIG    1        1.895   1.403   4.998  0.00  0.00    +0.110 C 
ATOM      8  O   LIG    1        2.098   0.204   5.748  0.00  0.00    -0.360 OA
ATOM      9  C   LIG    1        0.987   0.181   4.850  0.00  0.00    +0.110 C 
ATOM     10  C   LIG    1        1.115  -0.654   3.574  0.00  0.00    +0.040 C 
ATOM     11  C   LIG    1        0.793   0.220   2.360  0.00  0.00    +0.030 C 
ATOM     12  C   LIG    1       -0.167  -0.525   1.431  0.00  0.00    +0.000 C 
ATOM     13  C   LIG    1        0.002  -0.004   0.002  0.00  0.00    +0.000 C 
ENDROOT
TORSDOF 0
ENDMDL
MODEL       44
REMARK  Name = ZINC000026893485
REMARK                            x       y       z     vdW  Elec       q    Type
REMARK                         _______ _______ _______ _____ _____    ______ ____
ROOT
ATOM      1  C   LIG    1       -0.018   1.503   0.010  0.00  0.00    +0.100 C 
ATOM      2  C   LIG    1        0.002  -0.004   0.002  0.00  0.00    -0.080 A 
ATOM      3  C   LIG    1        0.006  -0.685  -1.204  0.00  0.00    +0.040 A 
ATOM      4  C   LIG    1        0.024  -2.066  -1.227  0.00  0.00    +0.040 A 
ATOM      5  C   LIG    1        0.040  -2.782  -0.034  0.00  0.00    +0.000 A 
ATOM      6  C   LIG    1        0.036  -2.091   1.192  0.00  0.00    -0.020 A 
ATOM      7  C   LIG    1        0.023  -0.696   1.195  0.00  0.00    +0.070 A 
ENDROOT
BRANCH   5   8
ATOM      8  C   LIG    1        0.060  -4.264  -0.054  0.00  0.00    -0.060 A 
ATOM      9  C   LIG    1        0.994  -4.962   0.712  0.00  0.00    +0.020 A 
ATOM     10  C   LIG    1        1.008  -6.341   0.689  0.00  0.00    +0.010 A 
ATOM     11  C   LIG    1        0.099  -7.032  -0.092  0.00  0.00    +0.020 A 
ATOM     12  C   LIG    1       -0.830  -6.346  -0.854  0.00  0.00    +0.010 A 
ATOM     13  C   LIG    1       -0.858  -4.966  -0.835  0.00  0.00    +0.030 A 
ENDBRANCH   5   8
BRANCH   6  14
ATOM     14  C   LIG    1        0.052  -2.815   2.428  0.00  0.00    +0.250 C 
ATOM     15  N   LIG    1        0.065  -3.389   3.408  0.00  0.00    -0.410 NA
ENDBRANCH   6  14
TORSDOF 2
ENDMDL
MODEL       45
REMARK  Name = ZINC000044368867
REMARK                            x       y       z     vdW  Elec       q    Type
REMARK                         _______ _______ _______ _____ _____    ______ ____
ROOT
ATOM      1  C   LIG    1        1.396   1.989  -0.001  0.00  0.00    -0.100 A 
ATOM      2  C   LIG    1        2.058   2.217   1.192  0.00  0.00    +0.030 A 
ATOM      3  C   LIG    1        3.355   2.695   1.182  0.00  0.00    +0.000 A 
ATOM      4  C   LIG    1        3.990   2.946  -0.020  0.00  0.00    -0.070 A 
ATOM      5  C   LIG    1        3.328   2.717  -1.212  0.00  0.00    +0.010 A 
ATOM      6  C   LIG    1        2.033   2.235  -1.203  0.00  0.00    +0.030 A 
ENDROOT
BRANCH   4   7
ATOM      7  C   LIG    1        5.403   3.468  -0.031  0.00  0.00    +0.030 C 
ATOM      8  C   LIG    1        6.307   2.480  -0.771  0.00  0.00    +0.010 C 
ATOM      9  C   LIG    1        7.742   3.010  -0.782  0.00  0.00    +0.000 C 
ATOM     10  C   LIG    1        7.780   4.365  -1.491  0.00  0.00    +0.000 C 
ATOM     11  C   LIG    1        6.877   5.353  -0.751  0.00  0.00    +0.000 C 
ATOM     12  C   LIG    1        5.441   4.823  -0.740  0.00  0.00    +0.010 C 
ENDBRANCH   4   7
BRANCH   1  13
ATOM     13  C   LIG    1       -0.018   1.468   0.010  0.00  0.00    +0.260 C 
BRANCH  13  15
ATOM     14  N   LIG    1        0.018  -1.140  -0.004  0.00  0.00    -0.430 NA
ATOM     15  C   LIG    1        0.002  -0.004   0.002  0.00  0.00    +0.210 C 
ENDBRANCH  13  15
ENDBRANCH   1  13
TORSDOF 3
ENDMDL
MODEL       46
REMARK  Name = ZINC000020476586
REMARK                            x       y       z     vdW  Elec       q    Type
REMARK                         _______ _______ _______ _____ _____    ______ ____
ROOT
ATOM      1  C   LIG    1        0.762  -2.018   1.233  0.00  0.00    -0.070 A 
ATOM      2  C   LIG    1       -0.262  -2.726   1.833  0.00  0.00    +0.000 A 
ATOM      3  C   LIG    1       -0.243  -4.108   1.825  0.00  0.00    +0.020 A 
ATOM      4  C   LIG    1        0.800  -4.782   1.218  0.00  0.00    -0.080 A 
ATOM      5  C   LIG    1        1.823  -4.074   0.617  0.00  0.00    +0.040 A 
ATOM      6  C   LIG    1        1.803  -2.692   0.621  0.00  0.00    +0.000 A 
ENDROOT
BRANCH   4   7
ATOM      7  C   LIG    1        0.820  -6.289   1.210  0.00  0.00    +0.100 C 
ATOM      8  C   LIG    1        0.820  -6.792  -0.235  0.00  0.00    +0.050 C 
BRANCH   7   9
ATOM      9  S   LIG    1        2.314  -6.878   2.054  0.00  0.00    -0.240 S 
ATOM     10  H   LIG    1        2.201  -8.215   1.972  0.00  0.00    +0.080 HD
ENDBRANCH   7   9
ENDBRANCH   4   7
BRANCH   1  11
ATOM     11  C   LIG    1        0.742  -0.511   1.242  0.00  0.00    +0.060 C 
BRANCH  11  13
ATOM     12  C   LIG    1       -0.019   1.526   0.010  0.00  0.00    +0.010 C 
ATOM     13  C   LIG    1        0.002  -0.004   0.002  0.00  0.00    +0.000 C 
ENDBRANCH  11  13
ENDBRANCH   1  11
TORSDOF 4
ENDMDL
MODEL       47
REMARK  Name = ZINC000020476587
REMARK                            x       y       z     vdW  Elec       q    Type
REMARK                         _______ _______ _______ _____ _____    ______ ____
ROOT
ATOM      1  C   LIG    1        0.762  -2.018   1.233  0.00  0.00    -0.070 A 
ATOM      2  C   LIG    1       -0.262  -2.726   1.833  0.00  0.00    +0.000 A 
ATOM      3  C   LIG    1       -0.243  -4.108   1.825  0.00  0.00    +0.020 A 
ATOM      4  C   LIG    1        0.800  -4.782   1.218  0.00  0.00    -0.080 A 
ATOM      5  C   LIG    1        1.823  -4.074   0.617  0.00  0.00    +0.040 A 
ATOM      6  C   LIG    1        1.803  -2.692   0.621  0.00  0.00    +0.000 A 
ENDROOT
BRANCH   4   7
ATOM      7  C   LIG    1        0.820  -6.289   1.210  0.00  0.00    +0.100 C 
ATOM      8  C   LIG    1        2.080  -6.785   1.922  0.00  0.00    +0.050 C 
BRANCH   7   9
ATOM      9  S   LIG    1        0.820  -6.885  -0.503  0.00  0.00    -0.240 S 
ATOM     10  H   LIG    1        0.839  -8.222  -0.359  0.00  0.00    +0.080 HD
ENDBRANCH   7   9
ENDBRANCH   4   7
BRANCH   1  11
ATOM     11  C   LIG    1        0.742  -0.511   1.242  0.00  0.00    +0.060 C 
BRANCH  11  13
ATOM     12  C   LIG    1       -0.019   1.526   0.010  0.00  0.00    +0.010 C 
ATOM     13  C   LIG    1        0.002  -0.004   0.002  0.00  0.00    +0.000 C 
ENDBRANCH  11  13
ENDBRANCH   1  11
TORSDOF 4
ENDMDL
MODEL       48
REMARK  Name = ZINC000003130525
REMARK                            x       y       z     vdW  Elec       q    Type
REMARK                         _______ _______ _______ _____ _____    ______ ____
ROOT
ATOM      1  C   LIG    1        2.192  -4.544  -3.791  0.00  0.00    +0.000 C 
ENDROOT
BRANCH   1   2
ATOM      2  C   LIG    1        1.476  -4.051  -2.532  0.00  0.00    +0.000 C 
BRANCH   2   3
ATOM      3  C   LIG    1        1.455  -2.521  -2.524  0.00  0.00    +0.000 C 
BRANCH   3   4
ATOM      4  C   LIG    1        0.739  -2.027  -1.265  0.00  0.00    +0.000 C 
BRANCH   4   5
ATOM      5  C   LIG    1        0.718  -0.497  -1.257  0.00  0.00    +0.000 C 
BRANCH   5   7
ATOM      6  C   LIG    1       -0.019   1.526   0.010  0.00  0.00    +0.000 C 
ATOM      7  C   LIG    1        0.002  -0.004   0.002  0.00  0.00    -0.010 C 
ENDBRANCH   5   7
ENDBRANCH   4   5
ENDBRANCH   3   4
ENDBRANCH   2   3
ENDBRANCH   1   2
BRANCH   1   8
ATOM      8  C   LIG    1        2.213  -6.074  -3.800  0.00  0.00    +0.000 C 
BRANCH   8   9
ATOM      9  C   LIG    1        2.929  -6.567  -5.058  0.00  0.00    +0.020 C 
BRANCH   9  10
ATOM     10  C   LIG    1        2.950  -8.097  -5.067  0.00  0.00    +0.180 C 
BRANCH  10  11
ATOM     11  O   LIG    1        3.619  -8.558  -6.243  0.00  0.00    -0.380 OA
BRANCH  11  12
ATOM     12  C   LIG    1        3.693  -9.981  -6.349  0.00  0.00    +0.360 C 
BRANCH  12  13
ATOM     13  C   LIG    1        4.398 -10.344  -7.589  0.00  0.00    +0.210 C 
ATOM     14  N   LIG    1        4.941 -10.625  -8.546  0.00  0.00    -0.400 NA
ENDBRANCH  12  13
ENDBRANCH  11  12
ENDBRANCH  10  11
ENDBRANCH   9  10
ENDBRANCH   8   9
ENDBRANCH   1   8
TORSDOF 11
ENDMDL
MODEL       49
REMARK  Name = ZINC000095611750
REMARK                            x       y       z     vdW  Elec       q    Type
REMARK                         _______ _______ _______ _____ _____    ______ ____
ROOT
ATOM      1  C   LIG    1        2.671  -3.764   1.138  0.00  0.00    +0.060 C 
ENDROOT
BRANCH   1   2
ATOM      2  C   LIG    1        3.987  -4.500   1.121  0.00  0.00    -0.080 A 
ATOM      3  C   LIG    1        4.106  -5.686   0.423  0.00  0.00    +0.000 A 
ATOM      4  C   LIG    1        5.312  -6.361   0.407  0.00  0.00    +0.000 A 
ATOM      5  C   LIG    1        6.399  -5.849   1.091  0.00  0.00    -0.010 A 
ATOM      6  C   LIG    1        6.280  -4.662   1.789  0.00  0.00    +0.000 A 
ATOM      7  C   LIG    1        5.075  -3.985   1.801  0.00  0.00    +0.000 A 
ENDBRANCH   1   2
BRANCH   1   8
ATOM      8  C   LIG    1        2.619  -2.786  -0.038  0.00  0.00    +0.060 C 
BRANCH   8  10
ATOM      9  C   LIG    1        1.286  -0.722  -0.014  0.00  0.00    -0.020 C 
ATOM     10  C   LIG    1        1.304  -2.051  -0.021  0.00  0.00    -0.030 C 
BRANCH   9  12
ATOM     11  C   LIG    1       -0.016   1.325   0.009  0.00  0.00    +0.020 C 
ATOM     12  C   LIG    1        0.002  -0.004   0.002  0.00  0.00    -0.100 C 
ATOM     13  C   LIG    1       -1.293  -0.775   0.010  0.00  0.00    +0.090 C 
ENDBRANCH   9  12
ENDBRANCH   8  10
ENDBRANCH   1   8
TORSDOF 4
ENDMDL
MODEL       50
REMARK  Name = ZINC000043208747
REMARK                            x       y       z     vdW  Elec       q    Type
REMARK                         _______ _______ _______ _____ _____    ______ ____
ROOT
ATOM      1  C   LIG    1        3.030  -1.842   1.400  0.00  0.00    -0.120 A 
ATOM      2  C   LIG    1        3.049  -3.223   1.387  0.00  0.00    +0.050 A 
ATOM      3  C   LIG    1        4.256  -3.898   1.372  0.00  0.00    -0.040 A 
ATOM      4  C   LIG    1        5.445  -3.194   1.371  0.00  0.00    +0.040 A 
ATOM      5  C   LIG    1        5.431  -1.812   1.383  0.00  0.00    -0.080 A 
ATOM      6  C   LIG    1        4.222  -1.132   1.393  0.00  0.00    +0.130 A 
ENDROOT
BRANCH   1   7
ATOM      7  C   LIG    1        1.715  -1.106   1.417  0.00  0.00    +0.090 C 
BRANCH   7   8
ATOM      8  C   LIG    1        1.317  -0.740  -0.015  0.00  0.00    +0.060 C 
BRANCH   8  10
ATOM      9  C   LIG    1       -0.016   1.306   0.009  0.00  0.00    +0.000 C 
ATOM     10  C   LIG    1        0.002  -0.004   0.002  0.00  0.00    -0.130 C 
ATOM     11  C   LIG    1       -1.293  -0.775   0.010  0.00  0.00    +0.080 C 
ENDBRANCH   8  10
ENDBRANCH   7   8
ENDBRANCH   1   7
BRANCH   6  12
ATOM     12  O   LIG    1        4.206   0.227   1.405  0.00  0.00    -0.310 OA
BRANCH  12  13
ATOM     13  C   LIG    1        5.471   0.891   1.408  0.00  0.00    +0.170 C 
ATOM     14  C   LIG    1        5.252   2.405   1.423  0.00  0.00    +0.070 C 
ENDBRANCH  12  13
ENDBRANCH   6  12
TORSDOF 5
ENDMDL
MODEL       51
REMARK  Name = ZINC000071795108
REMARK                            x       y       z     vdW  Elec       q    Type
REMARK                         _______ _______ _______ _____ _____    ______ ____
ROOT
ATOM      1  C   LIG    1       -2.975  -1.908  -1.417  0.00  0.00    -0.080 A 
ATOM      2  C   LIG    1       -2.956  -3.290  -1.419  0.00  0.00    +0.010 A 
ATOM      3  C   LIG    1       -4.144  -3.997  -1.411  0.00  0.00    -0.090 A 
ATOM      4  C   LIG    1       -5.350  -3.322  -1.401  0.00  0.00    +0.000 A 
ATOM      5  C   LIG    1       -5.369  -1.940  -1.399  0.00  0.00    +0.010 A 
ATOM      6  C   LIG    1       -4.123  -5.504  -1.414  0.00  0.00    +0.090 C 
ATOM      7  C   LIG    1       -4.181  -1.233  -1.402  0.00  0.00    -0.090 A 
ATOM      8  C   LIG    1       -4.202   0.274  -1.399  0.00  0.00    +0.080 C 
ENDROOT
BRANCH   1   9
ATOM      9  C   LIG    1       -1.680  -1.137  -1.425  0.00  0.00    +0.070 C 
BRANCH   9  10
ATOM     10  C   LIG    1       -1.293  -0.775   0.010  0.00  0.00    +0.060 C 
BRANCH  10  12
ATOM     11  C   LIG    1       -0.016   1.306   0.009  0.00  0.00    +0.000 C 
ATOM     12  C   LIG    1        0.002  -0.004   0.002  0.00  0.00    -0.130 C 
ATOM     13  C   LIG    1        1.317  -0.740  -0.015  0.00  0.00    +0.070 C 
ENDBRANCH  10  12
ENDBRANCH   9  10
ENDBRANCH   1   9
TORSDOF 3
ENDMDL
MODEL       52
REMARK  Name = ZINC000085650656
REMARK                            x       y       z     vdW  Elec       q    Type
REMARK                         _______ _______ _______ _____ _____    ______ ____
ROOT
ATOM      1  C   LIG    1        3.441  -2.214   2.810  0.00  0.00    -0.080 A 
ATOM      2  C   LIG    1        4.284  -1.385   3.527  0.00  0.00    +0.010 A 
ATOM      3  C   LIG    1        4.643  -1.717   4.820  0.00  0.00    +0.000 A 
ATOM      4  C   LIG    1        4.159  -2.876   5.396  0.00  0.00    +0.000 A 
ATOM      5  C   LIG    1        3.315  -3.704   4.680  0.00  0.00    +0.000 A 
ATOM      6  C   LIG    1        2.953  -3.371   3.388  0.00  0.00    -0.080 A 
ATOM      7  C   LIG    1        2.033  -4.273   2.607  0.00  0.00    +0.090 C 
ENDROOT
BRANCH   1   8
ATOM      8  C   LIG    1        3.050  -1.853   1.400  0.00  0.00    +0.070 C 
BRANCH   8   9
ATOM      9  C   LIG    1        1.715  -1.106   1.417  0.00  0.00    +0.020 C 
BRANCH   9  10
ATOM     10  C   LIG    1        1.317  -0.740  -0.015  0.00  0.00    +0.050 C 
BRANCH  10  12
ATOM     11  C   LIG    1       -0.016   1.306   0.009  0.00  0.00    +0.000 C 
ATOM     12  C   LIG    1        0.002  -0.004   0.002  0.00  0.00    -0.130 C 
ATOM     13  C   LIG    1       -1.293  -0.775   0.010  0.00  0.00    +0.070 C 
ENDBRANCH  10  12
ENDBRANCH   9  10
ENDBRANCH   8   9
ENDBRANCH   1   8
TORSDOF 4
ENDMDL
MODEL       53
REMARK  Name = ZINC000002243020
REMARK                            x       y       z     vdW  Elec       q    Type
REMARK                         _______ _______ _______ _____ _____    ______ ____
ROOT
ATOM      1  C   LIG    1       -1.680  -1.137  -1.425  0.00  0.00    +0.010 C 
ENDROOT
BRANCH   1   2
ATOM      2  C   LIG    1       -1.293  -0.775   0.010  0.00  0.00    +0.050 C 
BRANCH   2   4
ATOM      3  C   LIG    1       -0.016   1.306   0.009  0.00  0.00    +0.000 C 
ATOM      4  C   LIG    1        0.002  -0.004   0.002  0.00  0.00    -0.130 C 
ATOM      5  C   LIG    1        1.317  -0.740  -0.015  0.00  0.00    +0.070 C 
ENDBRANCH   2   4
ENDBRANCH   1   2
BRANCH   1   6
ATOM      6  C   LIG    1       -2.995  -1.919  -1.417  0.00  0.00    +0.000 C 
BRANCH   6   7
ATOM      7  C   LIG    1       -3.382  -2.281  -2.852  0.00  0.00    +0.000 C 
BRANCH   7   8
ATOM      8  C   LIG    1       -4.697  -3.064  -2.844  0.00  0.00    +0.000 C 
BRANCH   8   9
ATOM      9  C   LIG    1       -5.084  -3.425  -4.279  0.00  0.00    -0.010 C 
ATOM     10  C   LIG    1       -6.399  -4.208  -4.271  0.00  0.00    +0.000 C 
ENDBRANCH   8   9
ENDBRANCH   7   8
ENDBRANCH   6   7
ENDBRANCH   1   6
TORSDOF 6
ENDMDL
MODEL       54
REMARK  Name = ZINC000032170976
REMARK                            x       y       z     vdW  Elec       q    Type
REMARK                         _______ _______ _______ _____ _____    ______ ____
ROOT
ATOM      1  C   LIG    1        3.441  -2.214   2.810  0.00  0.00    -0.040 A 
ATOM      2  C   LIG    1        4.199  -1.336   3.562  0.00  0.00    -0.040 A 
ATOM      3  C   LIG    1        4.560  -1.664   4.856  0.00  0.00    +0.050 A 
ATOM      4  C   LIG    1        4.164  -2.871   5.400  0.00  0.00    -0.080 A 
ATOM      5  C   LIG    1        3.403  -3.753   4.647  0.00  0.00    +0.130 A 
ATOM      6  C   LIG    1        3.038  -3.419   3.351  0.00  0.00    -0.020 A 
ENDROOT
BRANCH   5   7
ATOM      7  O   LIG    1        3.011  -4.940   5.180  0.00  0.00    -0.320 OA
ATOM      8  C   LIG    1        3.419  -5.215   6.522  0.00  0.00    +0.250 C 
ENDBRANCH   5   7
BRANCH   1   9
ATOM      9  C   LIG    1        3.050  -1.853   1.400  0.00  0.00    +0.080 C 
BRANCH   9  10
ATOM     10  C   LIG    1        1.715  -1.106   1.417  0.00  0.00    +0.030 C 
BRANCH  10  11
ATOM     11  C   LIG    1        1.317  -0.740  -0.015  0.00  0.00    +0.050 C 
BRANCH  11  13
ATOM     12  C   LIG    1       -0.016   1.306   0.009  0.00  0.00    +0.000 C 
ATOM     13  C   LIG    1        0.002  -0.004   0.002  0.00  0.00    -0.130 C 
ATOM     14  C   LIG    1       -1.293  -0.775   0.010  0.00  0.00    +0.070 C 
ENDBRANCH  11  13
ENDBRANCH  10  11
ENDBRANCH   9  10
ENDBRANCH   1   9
TORSDOF 5
ENDMDL
MODEL       55
REMARK  Name = ZINC000043762662
REMARK                            x       y       z     vdW  Elec       q    Type
REMARK                         _______ _______ _______ _____ _____    ______ ____
ROOT
ATOM      1  C   LIG    1       -3.039  -1.861  -1.313  0.00  0.00    +0.010 C 
ATOM      2  C   LIG    1       -3.427  -2.428  -2.680  0.00  0.00    -0.020 C 
ATOM      3  C   LIG    1       -4.740  -3.204  -2.566  0.00  0.00    +0.040 C 
ATOM      4  C   LIG    1       -5.864  -2.245  -2.160  0.00  0.00    +0.020 C 
ATOM      5  C   LIG    1       -5.452  -1.528  -0.894  0.00  0.00    +0.360 C 
ATOM      6  O   LIG    1       -6.184  -1.497   0.066  0.00  0.00    -0.450 OA
ATOM      7  C   LIG    1       -2.324  -3.366  -3.173  0.00  0.00    +0.030 C 
ATOM      8  C   LIG    1       -4.099  -0.852  -0.860  0.00  0.00    -0.030 C 
ATOM      9  C   LIG    1       -3.794  -0.384   0.564  0.00  0.00    +0.040 C 
ENDROOT
BRANCH   1  10
ATOM     10  C   LIG    1       -1.681  -1.163  -1.416  0.00  0.00    +0.030 C 
BRANCH  10  11
ATOM     11  C   LIG    1       -1.744  -0.083  -2.498  0.00  0.00    +0.050 C 
BRANCH  11  13
ATOM     12  C   LIG    1        0.472   0.220  -3.475  0.00  0.00    +0.000 C 
ATOM     13  C   LIG    1       -0.411   0.613  -2.592  0.00  0.00    -0.120 C 
ATOM     14  C   LIG    1       -0.094   1.761  -1.668  0.00  0.00    +0.070 C 
ENDBRANCH  11  13
ENDBRANCH  10  11
ENDBRANCH   1  10
TORSDOF 3
ENDMDL
MODEL       56
REMARK  Name = ZINC000002567478
REMARK                            x       y       z     vdW  Elec       q    Type
REMARK                         _______ _______ _______ _____ _____    ______ ____
ROOT
ATOM      1  C   LIG    1       -2.975  -1.908  -1.417  0.00  0.00    -0.080 A 
ATOM      2  C   LIG    1       -2.957  -3.286  -1.314  0.00  0.00    +0.020 A 
ATOM      3  C   LIG    1       -4.144  -3.994  -1.307  0.00  0.00    +0.020 A 
ATOM      4  C   LIG    1       -5.350  -3.323  -1.402  0.00  0.00    -0.040 A 
ATOM      5  C   LIG    1       -5.367  -1.943  -1.504  0.00  0.00    +0.020 A 
ATOM      6 CL   LIG    1       -6.842  -4.211  -1.392  0.00  0.00    -0.070 Cl
ATOM      7  C   LIG    1       -4.180  -1.236  -1.506  0.00  0.00    +0.020 A 
ENDROOT
BRANCH   1   8
ATOM      8  C   LIG    1       -1.680  -1.137  -1.425  0.00  0.00    +0.080 C 
BRANCH   8   9
ATOM      9  C   LIG    1       -1.293  -0.775   0.010  0.00  0.00    +0.060 C 
BRANCH   9  11
ATOM     10  C   LIG    1       -0.016   1.306   0.009  0.00  0.00    +0.000 C 
ATOM     11  C   LIG    1        0.002  -0.004   0.002  0.00  0.00    -0.130 C 
ATOM     12  C   LIG    1        1.317  -0.740  -0.015  0.00  0.00    +0.070 C 
ENDBRANCH   9  11
ENDBRANCH   8   9
ENDBRANCH   1   8
TORSDOF 3
ENDMDL
MODEL       57
REMARK  Name = ZINC000015020307
REMARK                            x       y       z     vdW  Elec       q    Type
REMARK                         _______ _______ _______ _____ _____    ______ ____
ROOT
ATOM      1  C   LIG    1       -2.995  -1.919  -1.417  0.00  0.00    +0.000 C 
ENDROOT
BRANCH   1   2
ATOM      2  C   LIG    1       -1.680  -1.137  -1.425  0.00  0.00    +0.010 C 
BRANCH   2   3
ATOM      3  C   LIG    1       -1.293  -0.775   0.010  0.00  0.00    +0.050 C 
BRANCH   3   5
ATOM      4  C   LIG    1       -0.016   1.306   0.009  0.00  0.00    +0.000 C 
ATOM      5  C   LIG    1        0.002  -0.004   0.002  0.00  0.00    -0.130 C 
ATOM      6  C   LIG    1        1.317  -0.740  -0.015  0.00  0.00    +0.070 C 
ENDBRANCH   3   5
ENDBRANCH   2   3
ENDBRANCH   1   2
BRANCH   1   7
ATOM      7  C   LIG    1       -3.382  -2.281  -2.852  0.00  0.00    +0.000 C 
BRANCH   7   8
ATOM      8  C   LIG    1       -4.697  -3.064  -2.844  0.00  0.00    +0.020 C 
BRANCH   8   9
ATOM      9  C   LIG    1       -5.084  -3.425  -4.279  0.00  0.00    +0.020 C 
BRANCH   9  10
ATOM     10  C   LIG    1       -6.399  -4.208  -4.271  0.00  0.00    +0.190 C 
BRANCH  10  11
ATOM     11  C   LIG    1       -6.771  -4.556  -5.652  0.00  0.00    +0.200 C 
ATOM     12  N   LIG    1       -7.059  -4.824  -6.717  0.00  0.00    -0.440 NA
ENDBRANCH  10  11
ENDBRANCH   9  10
ENDBRANCH   8   9
ENDBRANCH   7   8
ENDBRANCH   1   7
TORSDOF 8
ENDMDL
MODEL       58
REMARK  Name = ZINC000085650690
REMARK                            x       y       z     vdW  Elec       q    Type
REMARK                         _______ _______ _______ _____ _____    ______ ____
ROOT
ATOM      1  C   LIG    1        3.441  -2.214   2.810  0.00  0.00    -0.090 A 
ATOM      2  C   LIG    1        4.199  -1.336   3.562  0.00  0.00    +0.040 A 
ATOM      3  C   LIG    1        4.559  -1.666   4.855  0.00  0.00    -0.010 A 
ATOM      4  C   LIG    1        4.159  -2.876   5.397  0.00  0.00    +0.090 A 
ATOM      5  C   LIG    1        3.400  -3.754   4.643  0.00  0.00    -0.010 A 
ATOM      6  F   LIG    1        4.510  -3.199   6.661  0.00  0.00    -0.140 F 
ATOM      7  C   LIG    1        3.037  -3.420   3.352  0.00  0.00    +0.040 A 
ENDROOT
BRANCH   1   8
ATOM      8  C   LIG    1        3.050  -1.853   1.400  0.00  0.00    +0.080 C 
BRANCH   8   9
ATOM      9  C   LIG    1        1.715  -1.106   1.417  0.00  0.00    +0.030 C 
BRANCH   9  10
ATOM     10  C   LIG    1        1.317  -0.740  -0.015  0.00  0.00    +0.050 C 
BRANCH  10  12
ATOM     11  C   LIG    1       -0.016   1.306   0.009  0.00  0.00    +0.000 C 
ATOM     12  C   LIG    1        0.002  -0.004   0.002  0.00  0.00    -0.130 C 
ATOM     13  C   LIG    1       -1.293  -0.775   0.010  0.00  0.00    +0.080 C 
ENDBRANCH  10  12
ENDBRANCH   9  10
ENDBRANCH   8   9
ENDBRANCH   1   8
TORSDOF 4
ENDMDL
MODEL       59
REMARK  Name = ZINC000034568316
REMARK                            x       y       z     vdW  Elec       q    Type
REMARK                         _______ _______ _______ _____ _____    ______ ____
ROOT
ATOM      1  C   LIG    1       -2.975  -1.908  -1.417  0.00  0.00    -0.040 C 
ATOM      2  C   LIG    1       -4.107  -1.243  -1.611  0.00  0.00    -0.210 C 
ATOM      3  C   LIG    1       -5.396  -1.943  -1.603  0.00  0.00    +0.390 C 
ATOM      4  C   LIG    1       -5.375  -3.458  -1.634  0.00  0.00    +0.020 C 
ATOM      5  C   LIG    1       -4.262  -3.918  -0.682  0.00  0.00    +0.040 C 
ATOM      6  O   LIG    1       -6.442  -1.331  -1.573  0.00  0.00    -0.460 OA
ATOM      7  C   LIG    1       -4.068   0.246  -1.841  0.00  0.00    +0.100 C 
ATOM      8  C   LIG    1       -2.921  -3.390  -1.196  0.00  0.00    +0.020 C 
ATOM      9  C   LIG    1       -1.832  -3.698  -0.166  0.00  0.00    +0.040 C 
ENDROOT
BRANCH   1  10
ATOM     10  C   LIG    1       -1.680  -1.137  -1.425  0.00  0.00    +0.070 C 
BRANCH  10  11
ATOM     11  C   LIG    1       -1.293  -0.775   0.010  0.00  0.00    +0.060 C 
BRANCH  11  13
ATOM     12  C   LIG    1       -0.016   1.306   0.009  0.00  0.00    +0.000 C 
ATOM     13  C   LIG    1        0.002  -0.004   0.002  0.00  0.00    -0.130 C 
ATOM     14  C   LIG    1        1.317  -0.740  -0.015  0.00  0.00    +0.070 C 
ENDBRANCH  11  13
ENDBRANCH  10  11
ENDBRANCH   1  10
TORSDOF 3
ENDMDL
MODEL       60
REMARK  Name = ZINC000032170938
REMARK                            x       y       z     vdW  Elec       q    Type
REMARK                         _______ _______ _______ _____ _____    ______ ____
ROOT
ATOM      1  C   LIG    1        3.441  -2.214   2.810  0.00  0.00    -0.120 A 
ATOM      2  C   LIG    1        4.199  -1.336   3.562  0.00  0.00    +0.050 A 
ATOM      3  C   LIG    1        4.559  -1.664   4.855  0.00  0.00    -0.020 A 
ATOM      4  C   LIG    1        4.160  -2.876   5.398  0.00  0.00    +0.120 A 
ATOM      5  C   LIG    1        3.398  -3.756   4.642  0.00  0.00    -0.080 A 
ATOM      6  C   LIG    1        3.037  -3.420   3.351  0.00  0.00    +0.040 A 
ENDROOT
BRANCH   4   7
ATOM      7  O   LIG    1        4.512  -3.201   6.670  0.00  0.00    -0.320 OA
ATOM      8  C   LIG    1        4.065  -4.466   7.164  0.00  0.00    +0.250 C 
ENDBRANCH   4   7
BRANCH   1   9
ATOM      9  C   LIG    1        3.050  -1.853   1.400  0.00  0.00    +0.060 C 
BRANCH   9  10
ATOM     10  C   LIG    1        1.715  -1.106   1.417  0.00  0.00    +0.010 C 
BRANCH  10  11
ATOM     11  C   LIG    1        1.317  -0.740  -0.015  0.00  0.00    +0.050 C 
BRANCH  11  13
ATOM     12  C   LIG    1       -0.016   1.306   0.009  0.00  0.00    +0.000 C 
ATOM     13  C   LIG    1        0.002  -0.004   0.002  0.00  0.00    -0.130 C 
ATOM     14  C   LIG    1       -1.293  -0.775   0.010  0.00  0.00    +0.080 C 
ENDBRANCH  11  13
ENDBRANCH  10  11
ENDBRANCH   9  10
ENDBRANCH   1   9
TORSDOF 5
ENDMDL
MODEL       61
REMARK  Name = ZINC000045071925
REMARK                            x       y       z     vdW  Elec       q    Type
REMARK                         _______ _______ _______ _____ _____    ______ ____
ROOT
ATOM      1  C   LIG    1       -3.200  -1.595  -1.363  0.00  0.00    +0.010 C 
ATOM      2  C   LIG    1       -2.862  -0.850  -2.656  0.00  0.00    -0.010 C 
ATOM      3  C   LIG    1       -3.861   0.287  -2.875  0.00  0.00    +0.040 C 
ATOM      4  C   LIG    1       -5.264  -0.298  -3.068  0.00  0.00    +0.020 C 
ATOM      5  C   LIG    1       -5.581  -1.187  -1.886  0.00  0.00    +0.360 C 
ATOM      6  O   LIG    1       -6.608  -1.050  -1.266  0.00  0.00    -0.450 OA
ATOM      7  C   LIG    1       -1.449  -0.272  -2.555  0.00  0.00    +0.030 C 
ATOM      8  C   LIG    1       -4.578  -2.251  -1.499  0.00  0.00    -0.040 C 
ATOM      9  C   LIG    1       -4.985  -2.881  -0.166  0.00  0.00    +0.040 C 
ENDROOT
BRANCH   1  10
ATOM     10  C   LIG    1       -3.217  -0.608  -0.195  0.00  0.00    +0.010 C 
BRANCH  10  11
ATOM     11  C   LIG    1       -1.824  -0.537   0.434  0.00  0.00    +0.060 C 
BRANCH  11  13
ATOM     12  C   LIG    1       -2.036  -0.286   2.854  0.00  0.00    +0.000 C 
ATOM     13  C   LIG    1       -1.882   0.294   1.690  0.00  0.00    -0.130 C 
ATOM     14  C   LIG    1       -1.762   1.794   1.606  0.00  0.00    +0.070 C 
ENDBRANCH  11  13
ENDBRANCH  10  11
ENDBRANCH   1  10
TORSDOF 3
ENDMDL
MODEL       62
REMARK  Name = ZINC000071795111
REMARK                            x       y       z     vdW  Elec       q    Type
REMARK                         _______ _______ _______ _____ _____    ______ ____
ROOT
ATOM      1  C   LIG    1       -2.975  -1.908  -1.417  0.00  0.00    -0.070 A 
ATOM      2  C   LIG    1       -2.958  -3.286  -1.314  0.00  0.00    +0.000 A 
ATOM      3  C   LIG    1       -4.145  -3.994  -1.307  0.00  0.00    -0.080 A 
ATOM      4  C   LIG    1       -5.350  -3.322  -1.401  0.00  0.00    -0.010 A 
ATOM      5  C   LIG    1       -5.367  -1.944  -1.503  0.00  0.00    -0.080 A 
ATOM      6  C   LIG    1       -6.681  -1.212  -1.606  0.00  0.00    +0.090 C 
ATOM      7  C   LIG    1       -4.127  -5.496  -1.196  0.00  0.00    +0.090 C 
ATOM      8  C   LIG    1       -4.180  -1.236  -1.506  0.00  0.00    +0.000 A 
ENDROOT
BRANCH   1   9
ATOM      9  C   LIG    1       -1.680  -1.137  -1.425  0.00  0.00    +0.070 C 
BRANCH   9  10
ATOM     10  C   LIG    1       -1.293  -0.775   0.010  0.00  0.00    +0.060 C 
BRANCH  10  12
ATOM     11  C   LIG    1       -0.016   1.306   0.009  0.00  0.00    +0.000 C 
ATOM     12  C   LIG    1        0.002  -0.004   0.002  0.00  0.00    -0.130 C 
ATOM     13  C   LIG    1        1.317  -0.740  -0.015  0.00  0.00    +0.070 C 
ENDBRANCH  10  12
ENDBRANCH   9  10
ENDBRANCH   1   9
TORSDOF 3
ENDMDL
MODEL       63
REMARK  Name = ZINC000043762661
REMARK                            x       y       z     vdW  Elec       q    Type
REMARK                         _______ _______ _______ _____ _____    ______ ____
ROOT
ATOM      1  C   LIG    1        3.050  -1.853   1.400  0.00  0.00    +0.010 C 
ATOM      2  C   LIG    1        4.154  -0.915   0.901  0.00  0.00    -0.040 C 
ATOM      3  C   LIG    1        5.482  -1.630   1.019  0.00  0.00    +0.370 C 
ATOM      4  C   LIG    1        5.840  -2.262   2.346  0.00  0.00    +0.020 C 
ATOM      5  C   LIG    1        4.675  -3.151   2.792  0.00  0.00    +0.040 C 
ATOM      6  O   LIG    1        6.237  -1.693   0.079  0.00  0.00    -0.460 OA
ATOM      7  C   LIG    1        4.172   0.356   1.753  0.00  0.00    +0.050 C 
ATOM      8  C   LIG    1        3.387  -2.328   2.815  0.00  0.00    -0.010 C 
ATOM      9  C   LIG    1        2.241  -3.191   3.347  0.00  0.00    +0.030 C 
ENDROOT
BRANCH   1  10
ATOM     10  C   LIG    1        1.715  -1.106   1.417  0.00  0.00    +0.030 C 
BRANCH  10  11
ATOM     11  C   LIG    1        1.317  -0.740  -0.015  0.00  0.00    +0.050 C 
BRANCH  11  13
ATOM     12  C   LIG    1       -0.016   1.306   0.009  0.00  0.00    +0.000 C 
ATOM     13  C   LIG    1        0.002  -0.004   0.002  0.00  0.00    -0.120 C 
ATOM     14  C   LIG    1       -1.293  -0.775   0.010  0.00  0.00    +0.070 C 
ENDBRANCH  11  13
ENDBRANCH  10  11
ENDBRANCH   1  10
TORSDOF 3
ENDMDL
MODEL       64
REMARK  Name = ZINC000071795120
REMARK                            x       y       z     vdW  Elec       q    Type
REMARK                         _______ _______ _______ _____ _____    ______ ____
ROOT
ATOM      1  C   LIG    1        3.030  -1.842   1.400  0.00  0.00    -0.080 A 
ATOM      2  C   LIG    1        3.050  -3.219   1.283  0.00  0.00    +0.000 A 
ATOM      3  C   LIG    1        4.256  -3.894   1.268  0.00  0.00    +0.010 A 
ATOM      4  C   LIG    1        5.442  -3.191   1.370  0.00  0.00    -0.090 A 
ATOM      5  C   LIG    1        5.422  -1.814   1.486  0.00  0.00    -0.080 A 
ATOM      6  C   LIG    1        6.716  -1.048   1.597  0.00  0.00    +0.090 C 
ATOM      7  C   LIG    1        6.758  -3.927   1.354  0.00  0.00    +0.090 C 
ATOM      8  C   LIG    1        4.216  -1.139   1.497  0.00  0.00    +0.010 A 
ENDROOT
BRANCH   1   9
ATOM      9  C   LIG    1        1.715  -1.106   1.417  0.00  0.00    +0.070 C 
BRANCH   9  10
ATOM     10  C   LIG    1        1.317  -0.740  -0.015  0.00  0.00    +0.060 C 
BRANCH  10  12
ATOM     11  C   LIG    1       -0.016   1.306   0.009  0.00  0.00    +0.000 C 
ATOM     12  C   LIG    1        0.002  -0.004   0.002  0.00  0.00    -0.130 C 
ATOM     13  C   LIG    1       -1.293  -0.775   0.010  0.00  0.00    +0.070 C 
ENDBRANCH  10  12
ENDBRANCH   9  10
ENDBRANCH   1   9
TORSDOF 3
ENDMDL
MODEL       65
REMARK  Name = ZINC000001713446
REMARK                            x       y       z     vdW  Elec       q    Type
REMARK                         _______ _______ _______ _____ _____    ______ ____
ROOT
ATOM      1  C   LIG    1       -1.680  -1.137  -1.425  0.00  0.00    +0.010 C 
ENDROOT
BRANCH   1   2
ATOM      2  C   LIG    1       -1.293  -0.775   0.010  0.00  0.00    +0.050 C 
BRANCH   2   4
ATOM      3  C   LIG    1       -0.016   1.306   0.009  0.00  0.00    +0.000 C 
ATOM      4  C   LIG    1        0.002  -0.004   0.002  0.00  0.00    -0.130 C 
ATOM      5  C   LIG    1        1.317  -0.740  -0.015  0.00  0.00    +0.070 C 
ENDBRANCH   2   4
ENDBRANCH   1   2
BRANCH   1   6
ATOM      6  C   LIG    1       -2.995  -1.919  -1.417  0.00  0.00    +0.000 C 
BRANCH   6   7
ATOM      7  C   LIG    1       -3.382  -2.281  -2.852  0.00  0.00    +0.000 C 
BRANCH   7   8
ATOM      8  C   LIG    1       -4.697  -3.064  -2.844  0.00  0.00    -0.010 C 
ATOM      9  C   LIG    1       -5.084  -3.425  -4.279  0.00  0.00    +0.000 C 
ENDBRANCH   7   8
ENDBRANCH   6   7
ENDBRANCH   1   6
TORSDOF 5
ENDMDL
MODEL       66
REMARK  Name = ZINC000002245309
REMARK                            x       y       z     vdW  Elec       q    Type
REMARK                         _______ _______ _______ _____ _____    ______ ____
ROOT
ATOM      1  C   LIG    1        3.030  -1.842   1.400  0.00  0.00    -0.080 A 
ATOM      2  C   LIG    1        3.050  -3.219   1.283  0.00  0.00    +0.000 A 
ATOM      3  C   LIG    1        4.256  -3.894   1.268  0.00  0.00    +0.010 A 
ATOM      4  C   LIG    1        5.442  -3.191   1.370  0.00  0.00    -0.010 A 
ATOM      5  C   LIG    1        5.422  -1.814   1.486  0.00  0.00    -0.080 A 
ATOM      6  C   LIG    1        6.715  -1.048   1.598  0.00  0.00    +0.090 C 
ATOM      7  C   LIG    1        4.216  -1.139   1.497  0.00  0.00    +0.000 A 
ENDROOT
BRANCH   1   8
ATOM      8  C   LIG    1        1.715  -1.106   1.417  0.00  0.00    +0.070 C 
BRANCH   8   9
ATOM      9  C   LIG    1        1.317  -0.740  -0.015  0.00  0.00    +0.060 C 
BRANCH   9  11
ATOM     10  C   LIG    1       -0.016   1.306   0.009  0.00  0.00    +0.000 C 
ATOM     11  C   LIG    1        0.002  -0.004   0.002  0.00  0.00    -0.130 C 
ATOM     12  C   LIG    1       -1.293  -0.775   0.010  0.00  0.00    +0.080 C 
ENDBRANCH   9  11
ENDBRANCH   8   9
ENDBRANCH   1   8
TORSDOF 3
ENDMDL
MODEL       67
REMARK  Name = ZINC000071795064
REMARK                            x       y       z     vdW  Elec       q    Type
REMARK                         _______ _______ _______ _____ _____    ______ ____
ROOT
ATOM      1  C   LIG    1        3.030  -1.842   1.400  0.00  0.00    -0.090 A 
ATOM      2  C   LIG    1        3.049  -3.224   1.387  0.00  0.00    +0.010 A 
ATOM      3  C   LIG    1        4.255  -3.899   1.372  0.00  0.00    +0.000 A 
ATOM      4  C   LIG    1        5.442  -3.191   1.370  0.00  0.00    -0.090 A 
ATOM      5  C   LIG    1        5.424  -1.809   1.381  0.00  0.00    +0.000 A 
ATOM      6  C   LIG    1        6.758  -3.927   1.354  0.00  0.00    +0.090 C 
ATOM      7  C   LIG    1        4.218  -1.134   1.393  0.00  0.00    -0.080 A 
ATOM      8  C   LIG    1        4.197   0.372   1.406  0.00  0.00    +0.090 C 
ENDROOT
BRANCH   1   9
ATOM      9  C   LIG    1        1.715  -1.106   1.417  0.00  0.00    +0.070 C 
BRANCH   9  10
ATOM     10  C   LIG    1        1.317  -0.740  -0.015  0.00  0.00    +0.060 C 
BRANCH  10  12
ATOM     11  C   LIG    1       -0.016   1.306   0.009  0.00  0.00    +0.000 C 
ATOM     12  C   LIG    1        0.002  -0.004   0.002  0.00  0.00    -0.130 C 
ATOM     13  C   LIG    1       -1.293  -0.775   0.010  0.00  0.00    +0.080 C 
ENDBRANCH  10  12
ENDBRANCH   9  10
ENDBRANCH   1   9
TORSDOF 3
ENDMDL
MODEL       68
REMARK  Name = ZINC000002567477
REMARK                            x       y       z     vdW  Elec       q    Type
REMARK                         _______ _______ _______ _____ _____    ______ ____
ROOT
ATOM      1  C   LIG    1        3.030  -1.842   1.400  0.00  0.00    -0.070 A 
ATOM      2  C   LIG    1        3.050  -3.219   1.283  0.00  0.00    +0.020 A 
ATOM      3  C   LIG    1        4.256  -3.894   1.267  0.00  0.00    +0.030 A 
ATOM      4  C   LIG    1        5.442  -3.193   1.369  0.00  0.00    +0.010 A 
ATOM      5  C   LIG    1        5.423  -1.815   1.487  0.00  0.00    -0.030 A 
ATOM      6 CL   LIG    1        6.913  -0.933   1.615  0.00  0.00    -0.070 Cl
ATOM      7  C   LIG    1        4.216  -1.139   1.497  0.00  0.00    +0.020 A 
ENDROOT
BRANCH   1   8
ATOM      8  C   LIG    1        1.715  -1.106   1.417  0.00  0.00    +0.090 C 
BRANCH   8   9
ATOM      9  C   LIG    1        1.317  -0.740  -0.015  0.00  0.00    +0.060 C 
BRANCH   9  11
ATOM     10  C   LIG    1       -0.016   1.306   0.009  0.00  0.00    +0.000 C 
ATOM     11  C   LIG    1        0.002  -0.004   0.002  0.00  0.00    -0.130 C 
ATOM     12  C   LIG    1       -1.293  -0.775   0.010  0.00  0.00    +0.070 C 
ENDBRANCH   9  11
ENDBRANCH   8   9
ENDBRANCH   1   8
TORSDOF 3
ENDMDL
MODEL       69
REMARK  Name = ZINC000034568314
REMARK                            x       y       z     vdW  Elec       q    Type
REMARK                         _______ _______ _______ _____ _____    ______ ____
ROOT
ATOM      1  C   LIG    1       -2.975  -1.908  -1.417  0.00  0.00    -0.040 C 
ATOM      2  C   LIG    1       -4.107  -1.243  -1.611  0.00  0.00    -0.210 C 
ATOM      3  C   LIG    1       -5.394  -1.946  -1.621  0.00  0.00    +0.390 C 
ATOM      4  C   LIG    1       -5.415  -3.385  -1.148  0.00  0.00    +0.020 C 
ATOM      5  C   LIG    1       -4.175  -4.076  -1.732  0.00  0.00    +0.040 C 
ATOM      6  O   LIG    1       -6.407  -1.395  -1.998  0.00  0.00    -0.460 OA
ATOM      7  C   LIG    1       -4.070   0.249  -1.822  0.00  0.00    +0.100 C 
ATOM      8  C   LIG    1       -2.921  -3.390  -1.196  0.00  0.00    +0.020 C 
ATOM      9  C   LIG    1       -1.693  -3.964  -1.907  0.00  0.00    +0.030 C 
ENDROOT
BRANCH   1  10
ATOM     10  C   LIG    1       -1.680  -1.137  -1.425  0.00  0.00    +0.060 C 
BRANCH  10  11
ATOM     11  C   LIG    1       -1.293  -0.775   0.010  0.00  0.00    +0.060 C 
BRANCH  11  13
ATOM     12  C   LIG    1       -0.016   1.306   0.009  0.00  0.00    +0.010 C 
ATOM     13  C   LIG    1        0.002  -0.004   0.002  0.00  0.00    -0.130 C 
ATOM     14  C   LIG    1        1.317  -0.740  -0.015  0.00  0.00    +0.070 C 
ENDBRANCH  11  13
ENDBRANCH  10  11
ENDBRANCH   1  10
TORSDOF 3
ENDMDL
MODEL       70
REMARK  Name = ZINC000002245300
REMARK                            x       y       z     vdW  Elec       q    Type
REMARK                         _______ _______ _______ _____ _____    ______ ____
ROOT
ATOM      1  C   LIG    1       -2.975  -1.908  -1.417  0.00  0.00    -0.080 A 
ATOM      2  C   LIG    1       -2.956  -3.290  -1.419  0.00  0.00    +0.010 A 
ATOM      3  C   LIG    1       -4.144  -3.997  -1.411  0.00  0.00    +0.000 A 
ATOM      4  C   LIG    1       -5.350  -3.322  -1.401  0.00  0.00    +0.000 A 
ATOM      5  C   LIG    1       -5.369  -1.940  -1.399  0.00  0.00    +0.000 A 
ATOM      6  C   LIG    1       -4.181  -1.233  -1.402  0.00  0.00    -0.080 A 
ATOM      7  C   LIG    1       -4.202   0.274  -1.399  0.00  0.00    +0.090 C 
ENDROOT
BRANCH   1   8
ATOM      8  C   LIG    1       -1.680  -1.137  -1.425  0.00  0.00    +0.070 C 
BRANCH   8   9
ATOM      9  C   LIG    1       -1.293  -0.775   0.010  0.00  0.00    +0.060 C 
BRANCH   9  11
ATOM     10  C   LIG    1       -0.016   1.306   0.009  0.00  0.00    +0.000 C 
ATOM     11  C   LIG    1        0.002  -0.004   0.002  0.00  0.00    -0.130 C 
ATOM     12  C   LIG    1        1.317  -0.740  -0.015  0.00  0.00    +0.070 C 
ENDBRANCH   9  11
ENDBRANCH   8   9
ENDBRANCH   1   8
TORSDOF 3
ENDMDL
MODEL       71
REMARK  Name = ZINC000071795208
REMARK                            x       y       z     vdW  Elec       q    Type
REMARK                         _______ _______ _______ _____ _____    ______ ____
ROOT
ATOM      1  C   LIG    1        3.030  -1.842   1.400  0.00  0.00    -0.110 A 
ATOM      2  C   LIG    1        3.050  -3.221   1.282  0.00  0.00    +0.110 A 
ATOM      3  C   LIG    1        4.260  -3.896   1.267  0.00  0.00    -0.010 A 
ATOM      4  C   LIG    1        5.445  -3.192   1.369  0.00  0.00    +0.060 A 
ATOM      5  C   LIG    1        5.424  -1.815   1.487  0.00  0.00    +0.020 A 
ATOM      6  F   LIG    1        1.892  -3.908   1.182  0.00  0.00    -0.130 F 
ATOM      7  C   LIG    1        4.217  -1.139   1.497  0.00  0.00    -0.010 A 
ATOM      8 CL   LIG    1        4.192   0.591   1.644  0.00  0.00    -0.050 Cl
ENDROOT
BRANCH   1   9
ATOM      9  C   LIG    1        1.715  -1.106   1.417  0.00  0.00    +0.090 C 
BRANCH   9  10
ATOM     10  C   LIG    1        1.317  -0.740  -0.015  0.00  0.00    +0.060 C 
BRANCH  10  12
ATOM     11  C   LIG    1       -0.016   1.306   0.009  0.00  0.00    +0.010 C 
ATOM     12  C   LIG    1        0.002  -0.004   0.002  0.00  0.00    -0.130 C 
ATOM     13  C   LIG    1       -1.293  -0.775   0.010  0.00  0.00    +0.070 C 
ENDBRANCH  10  12
ENDBRANCH   9  10
ENDBRANCH   1   9
TORSDOF 3
ENDMDL
MODEL       72
REMARK  Name = ZINC000085650660
REMARK                            x       y       z     vdW  Elec       q    Type
REMARK                         _______ _______ _______ _____ _____    ______ ____
ROOT
ATOM      1  C   LIG    1       -3.376  -2.275  -2.830  0.00  0.00    -0.080 A 
ATOM      2  C   LIG    1       -4.158  -1.411  -3.574  0.00  0.00    +0.000 A 
ATOM      3  C   LIG    1       -4.508  -1.737  -4.871  0.00  0.00    +0.010 A 
ATOM      4  C   LIG    1       -4.076  -2.928  -5.424  0.00  0.00    -0.010 A 
ATOM      5  C   LIG    1       -3.294  -3.792  -4.681  0.00  0.00    -0.080 A 
ATOM      6  C   LIG    1       -2.823  -5.091  -5.285  0.00  0.00    +0.090 C 
ATOM      7  C   LIG    1       -2.940  -3.464  -3.386  0.00  0.00    +0.000 A 
ENDROOT
BRANCH   1   8
ATOM      8  C   LIG    1       -2.995  -1.919  -1.417  0.00  0.00    +0.060 C 
BRANCH   8   9
ATOM      9  C   LIG    1       -1.680  -1.137  -1.425  0.00  0.00    +0.010 C 
BRANCH   9  10
ATOM     10  C   LIG    1       -1.293  -0.775   0.010  0.00  0.00    +0.050 C 
BRANCH  10  12
ATOM     11  C   LIG    1       -0.016   1.306   0.009  0.00  0.00    +0.000 C 
ATOM     12  C   LIG    1        0.002  -0.004   0.002  0.00  0.00    -0.130 C 
ATOM     13  C   LIG    1        1.317  -0.740  -0.015  0.00  0.00    +0.070 C 
ENDBRANCH  10  12
ENDBRANCH   9  10
ENDBRANCH   8   9
ENDBRANCH   1   8
TORSDOF 4
ENDMDL
MODEL       73
REMARK  Name = ZINC000085650686
REMARK                            x       y       z     vdW  Elec       q    Type
REMARK                         _______ _______ _______ _____ _____    ______ ____
ROOT
ATOM      1  C   LIG    1       -3.376  -2.275  -2.830  0.00  0.00    -0.050 A 
ATOM      2  C   LIG    1       -4.158  -1.411  -3.574  0.00  0.00    +0.000 A 
ATOM      3  C   LIG    1       -4.509  -1.736  -4.871  0.00  0.00    +0.040 A 
ATOM      4  C   LIG    1       -4.079  -2.926  -5.426  0.00  0.00    -0.030 A 
ATOM      5  C   LIG    1       -3.295  -3.793  -4.683  0.00  0.00    +0.100 A 
ATOM      6  F   LIG    1       -2.874  -4.957  -5.224  0.00  0.00    -0.140 F 
ATOM      7  C   LIG    1       -2.940  -3.464  -3.386  0.00  0.00    -0.020 A 
ENDROOT
BRANCH   1   8
ATOM      8  C   LIG    1       -2.995  -1.919  -1.417  0.00  0.00    +0.080 C 
BRANCH   8   9
ATOM      9  C   LIG    1       -1.680  -1.137  -1.425  0.00  0.00    +0.030 C 
BRANCH   9  10
ATOM     10  C   LIG    1       -1.293  -0.775   0.010  0.00  0.00    +0.050 C 
BRANCH  10  12
ATOM     11  C   LIG    1       -0.016   1.306   0.009  0.00  0.00    +0.000 C 
ATOM     12  C   LIG    1        0.002  -0.004   0.002  0.00  0.00    -0.130 C 
ATOM     13  C   LIG    1        1.317  -0.740  -0.015  0.00  0.00    +0.070 C 
ENDBRANCH  10  12
ENDBRANCH   9  10
ENDBRANCH   8   9
ENDBRANCH   1   8
TORSDOF 4
ENDMDL
MODEL       74
REMARK  Name = ZINC000002567476
REMARK                            x       y       z     vdW  Elec       q    Type
REMARK                         _______ _______ _______ _____ _____    ______ ____
ROOT
ATOM      1  C   LIG    1        3.030  -1.842   1.400  0.00  0.00    -0.070 A 
ATOM      2  C   LIG    1        3.049  -3.224   1.387  0.00  0.00    +0.020 A 
ATOM      3  C   LIG    1        4.255  -3.899   1.372  0.00  0.00    +0.020 A 
ATOM      4  C   LIG    1        5.443  -3.192   1.371  0.00  0.00    +0.020 A 
ATOM      5  C   LIG    1        5.426  -1.810   1.384  0.00  0.00    +0.020 A 
ATOM      6  C   LIG    1        4.219  -1.134   1.393  0.00  0.00    -0.040 A 
ATOM      7 CL   LIG    1        4.196   0.602   1.409  0.00  0.00    -0.070 Cl
ENDROOT
BRANCH   1   8
ATOM      8  C   LIG    1        1.715  -1.106   1.417  0.00  0.00    +0.080 C 
BRANCH   8   9
ATOM      9  C   LIG    1        1.317  -0.740  -0.015  0.00  0.00    +0.060 C 
BRANCH   9  11
ATOM     10  C   LIG    1       -0.016   1.306   0.009  0.00  0.00    +0.010 C 
ATOM     11  C   LIG    1        0.002  -0.004   0.002  0.00  0.00    -0.130 C 
ATOM     12  C   LIG    1       -1.293  -0.775   0.010  0.00  0.00    +0.080 C 
ENDBRANCH   9  11
ENDBRANCH   8   9
ENDBRANCH   1   8
TORSDOF 3
ENDMDL
MODEL       75
REMARK  Name = ZINC000002245320
REMARK                            x       y       z     vdW  Elec       q    Type
REMARK                         _______ _______ _______ _____ _____    ______ ____
ROOT
ATOM      1  C   LIG    1        3.030  -1.842   1.400  0.00  0.00    -0.090 A 
ATOM      2  C   LIG    1        3.050  -3.219   1.283  0.00  0.00    +0.010 A 
ATOM      3  C   LIG    1        4.256  -3.894   1.268  0.00  0.00    +0.000 A 
ATOM      4  C   LIG    1        5.442  -3.191   1.370  0.00  0.00    -0.090 A 
ATOM      5  C   LIG    1        5.422  -1.814   1.486  0.00  0.00    +0.000 A 
ATOM      6  C   LIG    1        6.758  -3.927   1.354  0.00  0.00    +0.090 C 
ATOM      7  C   LIG    1        4.216  -1.139   1.497  0.00  0.00    +0.010 A 
ENDROOT
BRANCH   1   8
ATOM      8  C   LIG    1        1.715  -1.106   1.417  0.00  0.00    +0.070 C 
BRANCH   8   9
ATOM      9  C   LIG    1        1.317  -0.740  -0.015  0.00  0.00    +0.060 C 
BRANCH   9  11
ATOM     10  C   LIG    1       -0.016   1.306   0.009  0.00  0.00    +0.000 C 
ATOM     11  C   LIG    1        0.002  -0.004   0.002  0.00  0.00    -0.130 C 
ATOM     12  C   LIG    1       -1.293  -0.775   0.010  0.00  0.00    +0.080 C 
ENDBRANCH   9  11
ENDBRANCH   8   9
ENDBRANCH   1   8
TORSDOF 3
ENDMDL
MODEL       76
REMARK  Name = ZINC000085650664
REMARK                            x       y       z     vdW  Elec       q    Type
REMARK                         _______ _______ _______ _____ _____    ______ ____
ROOT
ATOM      1  C   LIG    1        3.441  -2.214   2.810  0.00  0.00    -0.090 A 
ATOM      2  C   LIG    1        4.199  -1.337   3.563  0.00  0.00    +0.010 A 
ATOM      3  C   LIG    1        4.558  -1.668   4.856  0.00  0.00    +0.000 A 
ATOM      4  C   LIG    1        4.159  -2.876   5.396  0.00  0.00    -0.090 A 
ATOM      5  C   LIG    1        3.400  -3.752   4.644  0.00  0.00    +0.000 A 
ATOM      6  C   LIG    1        4.551  -3.237   6.806  0.00  0.00    +0.090 C 
ATOM      7  C   LIG    1        3.038  -3.420   3.352  0.00  0.00    +0.010 A 
ENDROOT
BRANCH   1   8
ATOM      8  C   LIG    1        3.050  -1.853   1.400  0.00  0.00    +0.060 C 
BRANCH   8   9
ATOM      9  C   LIG    1        1.715  -1.106   1.417  0.00  0.00    +0.010 C 
BRANCH   9  10
ATOM     10  C   LIG    1        1.317  -0.740  -0.015  0.00  0.00    +0.050 C 
BRANCH  10  12
ATOM     11  C   LIG    1       -0.016   1.306   0.009  0.00  0.00    +0.000 C 
ATOM     12  C   LIG    1        0.002  -0.004   0.002  0.00  0.00    -0.130 C 
ATOM     13  C   LIG    1       -1.293  -0.775   0.010  0.00  0.00    +0.080 C 
ENDBRANCH  10  12
ENDBRANCH   9  10
ENDBRANCH   8   9
ENDBRANCH   1   8
TORSDOF 4
ENDMDL
MODEL       77
REMARK  Name = ZINC000043208750
REMARK                            x       y       z     vdW  Elec       q    Type
REMARK                         _______ _______ _______ _____ _____    ______ ____
ROOT
ATOM      1  C   LIG    1        3.030  -1.842   1.400  0.00  0.00    -0.120 A 
ATOM      2  C   LIG    1        3.049  -3.219   1.283  0.00  0.00    +0.050 A 
ATOM      3  C   LIG    1        4.253  -3.896   1.267  0.00  0.00    -0.020 A 
ATOM      4  C   LIG    1        5.444  -3.192   1.370  0.00  0.00    +0.130 A 
ATOM      5  C   LIG    1        5.422  -1.810   1.487  0.00  0.00    -0.080 A 
ATOM      6  C   LIG    1        4.216  -1.138   1.497  0.00  0.00    +0.040 A 
ENDROOT
BRANCH   1   7
ATOM      7  C   LIG    1        1.715  -1.106   1.417  0.00  0.00    +0.070 C 
BRANCH   7   8
ATOM      8  C   LIG    1        1.317  -0.740  -0.015  0.00  0.00    +0.060 C 
BRANCH   8  10
ATOM      9  C   LIG    1       -0.016   1.306   0.009  0.00  0.00    +0.000 C 
ATOM     10  C   LIG    1        0.002  -0.004   0.002  0.00  0.00    -0.130 C 
ATOM     11  C   LIG    1       -1.293  -0.775   0.010  0.00  0.00    +0.070 C 
ENDBRANCH   8  10
ENDBRANCH   7   8
ENDBRANCH   1   7
BRANCH   4  12
ATOM     12  O   LIG    1        6.630  -3.856   1.354  0.00  0.00    -0.320 OA
BRANCH  12  13
ATOM     13  C   LIG    1        7.816  -3.066   1.464  0.00  0.00    +0.170 C 
ATOM     14  C   LIG    1        9.042  -3.981   1.428  0.00  0.00    +0.070 C 
ENDBRANCH  12  13
ENDBRANCH   4  12
TORSDOF 5
ENDMDL
MODEL       78
REMARK  Name = ZINC000034408501
REMARK                            x       y       z     vdW  Elec       q    Type
REMARK                         _______ _______ _______ _____ _____    ______ ____
ROOT
ATOM      1  C   LIG    1        0.019   0.020   2.495  0.00  0.00    +0.010 A 
ATOM      2  C   LIG    1        1.114  -0.063   3.349  0.00  0.00    +0.030 A 
ATOM      3  C   LIG    1        1.107   0.618   4.551  0.00  0.00    +0.040 A 
ATOM      4  C   LIG    1        0.014   1.387   4.914  0.00  0.00    +0.020 A 
ATOM      5  C   LIG    1       -1.081   1.483   4.081  0.00  0.00    +0.070 A 
ATOM      6  C   LIG    1       -1.089   0.806   2.860  0.00  0.00    -0.020 A 
ENDROOT
BRANCH   1  13
ATOM      7  C   LIG    1       -0.018   1.503   0.010  0.00  0.00    +0.090 C 
ATOM      8  C   LIG    1        0.002  -0.004   0.002  0.00  0.00    -0.060 A 
ATOM      9  C   LIG    1        0.006  -0.689  -1.196  0.00  0.00    +0.010 A 
ATOM     10  C   LIG    1        0.025  -2.072  -1.205  0.00  0.00    +0.020 A 
ATOM     11  C   LIG    1        0.039  -2.777  -0.015  0.00  0.00    +0.000 A 
ATOM     12  C   LIG    1        0.036  -2.103   1.190  0.00  0.00    +0.040 A 
ATOM     13  C   LIG    1        0.023  -0.709   1.205  0.00  0.00    -0.070 A 
ENDBRANCH   1  13
BRANCH   6  14
ATOM     14  C   LIG    1       -2.223   0.902   1.991  0.00  0.00    +0.250 C 
ATOM     15  N   LIG    1       -3.122   0.978   1.301  0.00  0.00    -0.410 NA
ENDBRANCH   6  14
TORSDOF 2
ENDMDL
MODEL       79
REMARK  Name = ZINC000081914196
REMARK                            x       y       z     vdW  Elec       q    Type
REMARK                         _______ _______ _______ _____ _____    ______ ____
ROOT
ATOM      1  C   LIG    1        0.664  -0.377   3.438  0.00  0.00    +0.010 C 
ENDROOT
BRANCH   1   2
ATOM      2  C   LIG    1        1.240   0.100   2.104  0.00  0.00    +0.040 C 
BRANCH   2   5
ATOM      3  C   LIG    1       -0.018   1.503   0.010  0.00  0.00    +0.060 C 
ATOM      4  C   LIG    1        0.002  -0.004   0.002  0.00  0.00    -0.060 C 
ATOM      5  C   LIG    1        0.588  -0.657   0.976  0.00  0.00    -0.050 C 
ENDBRANCH   2   5
ENDBRANCH   1   2
BRANCH   1   6
ATOM      6  C   LIG    1        1.327   0.391   4.584  0.00  0.00    +0.000 C 
BRANCH   6   7
ATOM      7  C   LIG    1        0.750  -0.086   5.918  0.00  0.00    +0.000 C 
BRANCH   7   8
ATOM      8  C   LIG    1        1.413   0.682   7.064  0.00  0.00    +0.000 C 
BRANCH   8   9
ATOM      9  C   LIG    1        0.837   0.205   8.398  0.00  0.00    -0.010 C 
ATOM     10  C   LIG    1        1.500   0.973   9.543  0.00  0.00    +0.000 C 
ENDBRANCH   8   9
ENDBRANCH   7   8
ENDBRANCH   6   7
ENDBRANCH   1   6
TORSDOF 6
ENDMDL
MODEL       80
REMARK  Name = ZINC000085650677
REMARK                            x       y       z     vdW  Elec       q    Type
REMARK                         _______ _______ _______ _____ _____    ______ ____
ROOT
ATOM      1  C   LIG    1       -1.674  -1.131  -1.403  0.00  0.00    -0.030 A 
ATOM      2  C   LIG    1       -2.456  -0.267  -2.146  0.00  0.00    -0.010 A 
ATOM      3  C   LIG    1       -2.807  -0.593  -3.446  0.00  0.00    +0.120 A 
ATOM      4  C   LIG    1       -2.374  -1.786  -3.999  0.00  0.00    +0.000 A 
ATOM      5  C   LIG    1       -1.592  -2.650  -3.255  0.00  0.00    +0.000 A 
ATOM      6 CL   LIG    1       -1.048  -4.145  -3.949  0.00  0.00    -0.050 Cl
ATOM      7  F   LIG    1       -3.571   0.252  -4.172  0.00  0.00    -0.130 F 
ATOM      8  C   LIG    1       -1.238  -2.320  -1.959  0.00  0.00    +0.020 A 
ENDROOT
BRANCH   1   9
ATOM      9  C   LIG    1       -1.293  -0.775   0.010  0.00  0.00    +0.130 C 
BRANCH   9  11
ATOM     10  C   LIG    1       -0.016   1.306   0.009  0.00  0.00    +0.010 C 
ATOM     11  C   LIG    1        0.002  -0.004   0.002  0.00  0.00    -0.130 C 
ATOM     12  C   LIG    1        1.317  -0.740  -0.015  0.00  0.00    +0.070 C 
ENDBRANCH   9  11
ENDBRANCH   1   9
TORSDOF 2
ENDMDL
MODEL       81
REMARK  Name = ZINC000071795083
REMARK                            x       y       z     vdW  Elec       q    Type
REMARK                         _______ _______ _______ _____ _____    ______ ____
ROOT
ATOM      1  C   LIG    1        1.709  -1.101   1.395  0.00  0.00    -0.080 A 
ATOM      2  C   LIG    1        2.467  -0.223   2.148  0.00  0.00    +0.010 A 
ATOM      3  C   LIG    1        2.826  -0.554   3.441  0.00  0.00    +0.000 A 
ATOM      4  C   LIG    1        2.426  -1.762   3.982  0.00  0.00    -0.080 A 
ATOM      5  C   LIG    1        1.667  -2.639   3.229  0.00  0.00    +0.010 A 
ATOM      6  C   LIG    1        1.305  -2.306   1.938  0.00  0.00    +0.010 A 
ENDROOT
BRANCH   4   7
ATOM      7  C   LIG    1        2.818  -2.124   5.391  0.00  0.00    +0.020 C 
ATOM      8  C   LIG    1        3.646  -3.410   5.377  0.00  0.00    +0.040 C 
ATOM      9  C   LIG    1        1.558  -2.337   6.232  0.00  0.00    +0.040 C 
ENDBRANCH   4   7
BRANCH   1  10
ATOM     10  C   LIG    1        1.317  -0.740  -0.015  0.00  0.00    +0.110 C 
BRANCH  10  12
ATOM     11  C   LIG    1       -0.016   1.306   0.009  0.00  0.00    +0.010 C 
ATOM     12  C   LIG    1        0.002  -0.004   0.002  0.00  0.00    -0.120 C 
ATOM     13  C   LIG    1       -1.293  -0.775   0.010  0.00  0.00    +0.080 C 
ENDBRANCH  10  12
ENDBRANCH   1  10
TORSDOF 3
ENDMDL
MODEL       82
REMARK  Name = ZINC000071789750
REMARK                            x       y       z     vdW  Elec       q    Type
REMARK                         _______ _______ _______ _____ _____    ______ ____
ROOT
ATOM      1  C   LIG    1        1.709  -1.101   1.395  0.00  0.00    -0.070 A 
ATOM      2  C   LIG    1        2.466  -0.223   2.148  0.00  0.00    +0.020 A 
ATOM      3  C   LIG    1        2.826  -0.554   3.442  0.00  0.00    +0.020 A 
ATOM      4  C   LIG    1        2.427  -1.761   3.983  0.00  0.00    -0.080 A 
ATOM      5  C   LIG    1        1.669  -2.640   3.230  0.00  0.00    -0.040 A 
ATOM      6 CL   LIG    1        1.168  -4.157   3.909  0.00  0.00    -0.070 Cl
ATOM      7  C   LIG    1        2.819  -2.121   5.393  0.00  0.00    +0.100 C 
ATOM      8  C   LIG    1        1.305  -2.307   1.937  0.00  0.00    +0.030 A 
ENDROOT
BRANCH   1   9
ATOM      9  C   LIG    1        1.317  -0.740  -0.015  0.00  0.00    +0.110 C 
BRANCH   9  11
ATOM     10  C   LIG    1       -0.016   1.306   0.009  0.00  0.00    +0.010 C 
ATOM     11  C   LIG    1        0.002  -0.004   0.002  0.00  0.00    -0.120 C 
ATOM     12  C   LIG    1       -1.293  -0.775   0.010  0.00  0.00    +0.080 C 
ENDBRANCH   9  11
ENDBRANCH   1   9
TORSDOF 2
ENDMDL
MODEL       83
REMARK  Name = ZINC000071795213
REMARK                            x       y       z     vdW  Elec       q    Type
REMARK                         _______ _______ _______ _____ _____    ______ ____
ROOT
ATOM      1  C   LIG    1       -1.674  -1.131  -1.403  0.00  0.00    -0.070 A 
ATOM      2  C   LIG    1       -2.456  -0.267  -2.147  0.00  0.00    -0.070 A 
ATOM      3  C   LIG    1       -2.806  -0.593  -3.444  0.00  0.00    +0.020 A 
ATOM      4  C   LIG    1       -2.375  -1.784  -3.998  0.00  0.00    +0.020 A 
ATOM      5  C   LIG    1       -1.594  -2.649  -3.255  0.00  0.00    +0.020 A 
ATOM      6  C   LIG    1       -2.926   1.032  -1.544  0.00  0.00    +0.100 C 
ATOM      7  C   LIG    1       -1.238  -2.321  -1.960  0.00  0.00    -0.030 A 
ATOM      8 CL   LIG    1       -0.256  -3.407  -1.027  0.00  0.00    -0.060 Cl
ENDROOT
BRANCH   1   9
ATOM      9  C   LIG    1       -1.293  -0.775   0.010  0.00  0.00    +0.120 C 
BRANCH   9  11
ATOM     10  C   LIG    1       -0.016   1.306   0.009  0.00  0.00    +0.000 C 
ATOM     11  C   LIG    1        0.002  -0.004   0.002  0.00  0.00    -0.110 C 
ATOM     12  C   LIG    1        1.317  -0.740  -0.015  0.00  0.00    +0.070 C 
ENDBRANCH   9  11
ENDBRANCH   1   9
TORSDOF 2
ENDMDL
MODEL       84
REMARK  Name = ZINC000071795198
REMARK                            x       y       z     vdW  Elec       q    Type
REMARK                         _______ _______ _______ _____ _____    ______ ____
ROOT
ATOM      1  C   LIG    1        1.559  -1.004   1.470  0.00  0.00    -0.080 A 
ATOM      2  C   LIG    1        2.249  -0.082   2.234  0.00  0.00    +0.020 A 
ATOM      3  C   LIG    1        2.602  -0.388   3.535  0.00  0.00    -0.090 A 
ATOM      4  C   LIG    1        2.263  -1.615   4.073  0.00  0.00    -0.090 A 
ATOM      5  C   LIG    1        1.571  -2.537   3.310  0.00  0.00    +0.000 A 
ATOM      6  C   LIG    1        2.648  -1.948   5.492  0.00  0.00    +0.080 C 
ATOM      7  C   LIG    1        3.356   0.618   4.367  0.00  0.00    +0.080 C 
ATOM      8  C   LIG    1        1.215  -2.230   2.010  0.00  0.00    -0.090 A 
ATOM      9  C   LIG    1        0.461  -3.235   1.178  0.00  0.00    +0.090 C 
ENDROOT
BRANCH   1  10
ATOM     10  C   LIG    1        1.174  -0.671   0.052  0.00  0.00    +0.110 C 
BRANCH  10  12
ATOM     11  C   LIG    1        2.870   0.795  -0.915  0.00  0.00    +0.010 C 
ATOM     12  C   LIG    1        1.714   0.689  -0.309  0.00  0.00    -0.120 C 
ATOM     13  C   LIG    1        0.923   1.927   0.027  0.00  0.00    +0.070 C 
ENDBRANCH  10  12
ENDBRANCH   1  10
TORSDOF 2
ENDMDL
MODEL       85
REMARK  Name = ZINC000071795185
REMARK                            x       y       z     vdW  Elec       q    Type
REMARK                         _______ _______ _______ _____ _____    ______ ____
ROOT
ATOM      1  C   LIG    1       -1.540  -1.386  -1.177  0.00  0.00    -0.080 A 
ATOM      2  C   LIG    1       -2.257  -0.679  -2.124  0.00  0.00    -0.070 A 
ATOM      3  C   LIG    1       -2.845  -1.344  -3.183  0.00  0.00    -0.010 A 
ATOM      4  C   LIG    1       -2.717  -2.716  -3.296  0.00  0.00    -0.080 A 
ATOM      5  C   LIG    1       -1.999  -3.423  -2.349  0.00  0.00    -0.010 A 
ATOM      6  C   LIG    1       -3.358  -3.441  -4.451  0.00  0.00    +0.090 C 
ATOM      7  C   LIG    1       -2.397   0.816  -2.001  0.00  0.00    +0.080 C 
ATOM      8  C   LIG    1       -1.407  -2.757  -1.292  0.00  0.00    -0.070 A 
ATOM      9  C   LIG    1       -0.625  -3.528  -0.260  0.00  0.00    +0.090 C 
ENDROOT
BRANCH   1  10
ATOM     10  C   LIG    1       -0.898  -0.661  -0.022  0.00  0.00    +0.110 C 
BRANCH  10  12
ATOM     11  C   LIG    1        0.537   1.124  -0.867  0.00  0.00    +0.000 C 
ATOM     12  C   LIG    1        0.439  -0.115  -0.452  0.00  0.00    -0.110 C 
ATOM     13  C   LIG    1        1.662  -0.993  -0.404  0.00  0.00    +0.070 C 
ENDBRANCH  10  12
ENDBRANCH   1  10
TORSDOF 2
ENDMDL
MODEL       86
REMARK  Name = ZINC000002167510
REMARK                            x       y       z     vdW  Elec       q    Type
REMARK                         _______ _______ _______ _____ _____    ______ ____
ROOT
ATOM      1  C   LIG    1       -3.130  -2.309  -1.441  0.00  0.00    -0.090 A 
ATOM      2  C   LIG    1       -3.768  -2.312  -0.206  0.00  0.00    -0.010 A 
ATOM      3  C   LIG    1       -4.966  -2.982  -0.052  0.00  0.00    +0.020 A 
ATOM      4  C   LIG    1       -5.530  -3.649  -1.123  0.00  0.00    +0.010 A 
ATOM      5  C   LIG    1       -4.898  -3.648  -2.354  0.00  0.00    +0.030 A 
ATOM      6  C   LIG    1       -3.704  -2.975  -2.517  0.00  0.00    -0.070 A 
ATOM      7  C   LIG    1       -3.015  -2.975  -3.858  0.00  0.00    +0.100 C 
ENDROOT
BRANCH   1   8
ATOM      8  S   LIG    1       -1.601  -1.456  -1.643  0.00  0.00    -0.100 S 
BRANCH   8   9
ATOM      9  C   LIG    1       -1.293  -0.775   0.010  0.00  0.00    +0.100 C 
BRANCH   9  11
ATOM     10  C   LIG    1       -0.016   1.306   0.009  0.00  0.00    +0.040 C 
ATOM     11  C   LIG    1        0.002  -0.004   0.002  0.00  0.00    -0.120 C 
ATOM     12  C   LIG    1        1.317  -0.740  -0.015  0.00  0.00    +0.090 C 
ENDBRANCH   9  11
ENDBRANCH   8   9
ENDBRANCH   1   8
TORSDOF 3
ENDMDL
MODEL       87
REMARK  Name = ZINC000043209539
REMARK                            x       y       z     vdW  Elec       q    Type
REMARK                         _______ _______ _______ _____ _____    ______ ____
ROOT
ATOM      1  C   LIG    1        1.709  -1.101   1.395  0.00  0.00    -0.160 A 
ATOM      2  C   LIG    1        1.382  -2.234   2.017  0.00  0.00    +0.020 A 
ATOM      3  C   LIG    1        1.855  -2.346   3.314  0.00  0.00    +0.030 A 
ATOM      4  C   LIG    1        2.567  -1.301   3.744  0.00  0.00    -0.150 A 
ATOM      5 CL   LIG    1        3.285  -1.159   5.318  0.00  0.00    -0.010 Cl
ATOM      6  S   LIG    1        2.673  -0.095   2.469  0.00  0.00    +0.150 S 
ENDROOT
BRANCH   1   7
ATOM      7  C   LIG    1        1.317  -0.740  -0.015  0.00  0.00    +0.150 C 
BRANCH   7   9
ATOM      8  C   LIG    1       -0.016   1.306   0.009  0.00  0.00    +0.010 C 
ATOM      9  C   LIG    1        0.002  -0.004   0.002  0.00  0.00    -0.130 C 
ATOM     10  C   LIG    1       -1.293  -0.775   0.010  0.00  0.00    +0.080 C 
ENDBRANCH   7   9
ENDBRANCH   1   7
TORSDOF 2
ENDMDL
MODEL       88
REMARK  Name = ZINC000043208734
REMARK                            x       y       z     vdW  Elec       q    Type
REMARK                         _______ _______ _______ _____ _____    ______ ____
ROOT
ATOM      1  C   LIG    1        1.795  -1.016   1.393  0.00  0.00    -0.060 A 
ATOM      2  C   LIG    1        2.536  -0.068   2.070  0.00  0.00    +0.030 A 
ATOM      3  C   LIG    1        2.973  -0.318   3.358  0.00  0.00    +0.010 A 
ATOM      4  C   LIG    1        2.671  -1.519   3.973  0.00  0.00    +0.020 A 
ATOM      5  C   LIG    1        1.930  -2.473   3.302  0.00  0.00    -0.010 A 
ATOM      6  C   LIG    1        1.484  -2.222   2.010  0.00  0.00    -0.080 A 
ENDROOT
BRANCH   6   7
ATOM      7  S   LIG    1        0.539  -3.436   1.151  0.00  0.00    -0.110 S 
ATOM      8  C   LIG    1        0.427  -4.791   2.352  0.00  0.00    +0.120 C 
ENDBRANCH   6   7
BRANCH   1   9
ATOM      9  C   LIG    1        1.320  -0.742  -0.010  0.00  0.00    +0.110 C 
BRANCH   9  11
ATOM     10  C   LIG    1        2.145  -2.471  -1.524  0.00  0.00    +0.030 C 
ATOM     11  C   LIG    1        2.322  -1.286  -0.996  0.00  0.00    -0.130 C 
ATOM     12  C   LIG    1        3.529  -0.465  -1.373  0.00  0.00    +0.070 C 
ENDBRANCH   9  11
ENDBRANCH   1   9
TORSDOF 3
ENDMDL
MODEL       89
REMARK  Name = ZINC000071795222
REMARK                            x       y       z     vdW  Elec       q    Type
REMARK                         _______ _______ _______ _____ _____    ______ ____
ROOT
ATOM      1  C   LIG    1        1.558  -1.004   1.470  0.00  0.00    -0.070 A 
ATOM      2  C   LIG    1        2.249  -0.082   2.234  0.00  0.00    +0.040 A 
ATOM      3  C   LIG    1        2.602  -0.387   3.535  0.00  0.00    +0.020 A 
ATOM      4  C   LIG    1        2.264  -1.615   4.073  0.00  0.00    -0.040 A 
ATOM      5  C   LIG    1        1.573  -2.538   3.309  0.00  0.00    +0.020 A 
ATOM      6 CL   LIG    1        2.707  -1.999   5.707  0.00  0.00    -0.070 Cl
ATOM      7  C   LIG    1        1.215  -2.230   2.010  0.00  0.00    -0.070 A 
ATOM      8  C   LIG    1        0.462  -3.235   1.177  0.00  0.00    +0.100 C 
ENDROOT
BRANCH   1   9
ATOM      9  C   LIG    1        1.173  -0.671   0.052  0.00  0.00    +0.130 C 
BRANCH   9  11
ATOM     10  C   LIG    1        2.868   0.797  -0.914  0.00  0.00    +0.010 C 
ATOM     11  C   LIG    1        1.711   0.690  -0.308  0.00  0.00    -0.130 C 
ATOM     12  C   LIG    1        0.920   1.927   0.029  0.00  0.00    +0.070 C 
ENDBRANCH   9  11
ENDBRANCH   1   9
TORSDOF 2
ENDMDL
MODEL       90
REMARK  Name = ZINC000059554552
REMARK                            x       y       z     vdW  Elec       q    Type
REMARK                         _______ _______ _______ _____ _____    ______ ____
ROOT
ATOM      1  C   LIG    1       -1.674  -1.131  -1.403  0.00  0.00    -0.040 A 
ATOM      2  C   LIG    1       -2.456  -0.266  -2.146  0.00  0.00    +0.030 A 
ATOM      3  C   LIG    1       -2.807  -0.591  -3.444  0.00  0.00    +0.060 A 
ATOM      4  C   LIG    1       -2.376  -1.782  -3.999  0.00  0.00    -0.080 A 
ATOM      5  C   LIG    1       -1.593  -2.649  -3.255  0.00  0.00    +0.110 A 
ATOM      6  F   LIG    1       -1.171  -3.813  -3.796  0.00  0.00    -0.130 F 
ATOM      7 CL   LIG    1       -2.817  -2.189  -5.628  0.00  0.00    -0.050 Cl
ATOM      8  C   LIG    1       -1.238  -2.320  -1.958  0.00  0.00    +0.000 A 
ENDROOT
BRANCH   1   9
ATOM      9  C   LIG    1       -1.293  -0.775   0.010  0.00  0.00    +0.130 C 
BRANCH   9  11
ATOM     10  C   LIG    1       -0.016   1.306   0.009  0.00  0.00    +0.010 C 
ATOM     11  C   LIG    1        0.002  -0.004   0.002  0.00  0.00    -0.120 C 
ATOM     12  C   LIG    1        1.317  -0.740  -0.015  0.00  0.00    +0.070 C 
ENDBRANCH   9  11
ENDBRANCH   1   9
TORSDOF 2
ENDMDL
MODEL       91
REMARK  Name = ZINC000071795074
REMARK                            x       y       z     vdW  Elec       q    Type
REMARK                         _______ _______ _______ _____ _____    ______ ____
ROOT
ATOM      1  C   LIG    1        1.597  -0.965   0.994  0.00  0.00    -0.070 A 
ATOM      2  C   LIG    1        2.437   0.013   1.492  0.00  0.00    +0.010 A 
ATOM      3  C   LIG    1        2.718   0.059   2.845  0.00  0.00    +0.000 A 
ATOM      4  C   LIG    1        2.159  -0.873   3.699  0.00  0.00    +0.000 A 
ATOM      5  C   LIG    1        1.318  -1.851   3.201  0.00  0.00    +0.010 A 
ATOM      6  C   LIG    1        1.034  -1.894   1.849  0.00  0.00    -0.070 A 
ENDROOT
BRANCH   6   7
ATOM      7  C   LIG    1        0.117  -2.960   1.306  0.00  0.00    +0.020 C 
ATOM      8  C   LIG    1       -1.252  -2.848   1.980  0.00  0.00    +0.030 C 
ATOM      9  C   LIG    1        0.715  -4.340   1.591  0.00  0.00    +0.040 C 
ENDBRANCH   6   7
BRANCH   1  10
ATOM     10  C   LIG    1        1.290  -1.016  -0.481  0.00  0.00    +0.110 C 
BRANCH  10  12
ATOM     11  C   LIG    1        1.920  -3.195  -1.383  0.00  0.00    +0.000 C 
ATOM     12  C   LIG    1        2.257  -1.949  -1.163  0.00  0.00    -0.120 C 
ATOM     13  C   LIG    1        3.612  -1.448  -1.593  0.00  0.00    +0.070 C 
ENDBRANCH  10  12
ENDBRANCH   1  10
TORSDOF 3
ENDMDL
MODEL       92
REMARK  Name = ZINC000071789752
REMARK                            x       y       z     vdW  Elec       q    Type
REMARK                         _______ _______ _______ _____ _____    ______ ____
ROOT
ATOM      1  C   LIG    1       -1.674  -1.131  -1.403  0.00  0.00    -0.070 A 
ATOM      2  C   LIG    1       -2.456  -0.266  -2.147  0.00  0.00    +0.020 A 
ATOM      3  C   LIG    1       -2.806  -0.592  -3.444  0.00  0.00    +0.030 A 
ATOM      4  C   LIG    1       -2.374  -1.784  -3.998  0.00  0.00    -0.040 A 
ATOM      5  C   LIG    1       -1.592  -2.649  -3.253  0.00  0.00    -0.070 A 
ATOM      6  C   LIG    1       -1.120  -3.947  -3.857  0.00  0.00    +0.100 C 
ATOM      7 CL   LIG    1       -2.813  -2.193  -5.627  0.00  0.00    -0.070 Cl
ATOM      8  C   LIG    1       -1.238  -2.320  -1.959  0.00  0.00    +0.020 A 
ENDROOT
BRANCH   1   9
ATOM      9  C   LIG    1       -1.293  -0.775   0.010  0.00  0.00    +0.110 C 
BRANCH   9  11
ATOM     10  C   LIG    1       -0.016   1.306   0.009  0.00  0.00    +0.010 C 
ATOM     11  C   LIG    1        0.002  -0.004   0.002  0.00  0.00    -0.120 C 
ATOM     12  C   LIG    1        1.317  -0.740  -0.015  0.00  0.00    +0.070 C 
ENDBRANCH   9  11
ENDBRANCH   1   9
TORSDOF 2
ENDMDL
MODEL       93
REMARK  Name = ZINC000071795055
REMARK                            x       y       z     vdW  Elec       q    Type
REMARK                         _______ _______ _______ _____ _____    ______ ____
ROOT
ATOM      1  C   LIG    1        1.709  -1.101   1.395  0.00  0.00    -0.080 A 
ATOM      2  C   LIG    1        2.467  -0.223   2.148  0.00  0.00    +0.010 A 
ATOM      3  C   LIG    1        2.826  -0.554   3.441  0.00  0.00    +0.000 A 
ATOM      4  C   LIG    1        2.426  -1.762   3.982  0.00  0.00    -0.090 A 
ATOM      5  C   LIG    1        1.667  -2.639   3.229  0.00  0.00    +0.000 A 
ATOM      6  C   LIG    1        1.305  -2.306   1.938  0.00  0.00    +0.010 A 
ENDROOT
BRANCH   1   7
ATOM      7  C   LIG    1        1.317  -0.740  -0.015  0.00  0.00    +0.110 C 
BRANCH   7   9
ATOM      8  C   LIG    1       -0.016   1.306   0.009  0.00  0.00    +0.010 C 
ATOM      9  C   LIG    1        0.002  -0.004   0.002  0.00  0.00    -0.120 C 
ATOM     10  C   LIG    1       -1.293  -0.775   0.010  0.00  0.00    +0.080 C 
ENDBRANCH   7   9
ENDBRANCH   1   7
BRANCH   4  11
ATOM     11  C   LIG    1        2.818  -2.124   5.391  0.00  0.00    +0.060 C 
BRANCH  11  12
ATOM     12  C   LIG    1        1.745  -1.626   6.362  0.00  0.00    +0.000 C 
ATOM     13  C   LIG    1        2.143  -1.993   7.793  0.00  0.00    +0.010 C 
ENDBRANCH  11  12
ENDBRANCH   4  11
TORSDOF 4
ENDMDL
MODEL       94
REMARK  Name = ZINC000071795219
REMARK                            x       y       z     vdW  Elec       q    Type
REMARK                         _______ _______ _______ _____ _____    ______ ____
ROOT
ATOM      1  C   LIG    1       -1.674  -1.131  -1.403  0.00  0.00    -0.080 A 
ATOM      2  C   LIG    1       -2.539  -0.318  -2.111  0.00  0.00    +0.070 A 
ATOM      3  C   LIG    1       -2.890  -0.643  -3.408  0.00  0.00    +0.000 A 
ATOM      4  C   LIG    1       -2.376  -1.784  -3.998  0.00  0.00    +0.110 A 
ATOM      5  C   LIG    1       -1.509  -2.599  -3.290  0.00  0.00    +0.010 A 
ATOM      6  F   LIG    1       -2.718  -2.103  -5.266  0.00  0.00    -0.130 F 
ATOM      7  C   LIG    1       -1.154  -2.269  -1.995  0.00  0.00    -0.010 A 
ATOM      8 CL   LIG    1       -0.067  -3.289  -1.106  0.00  0.00    -0.040 Cl
ENDROOT
BRANCH   1   9
ATOM      9  C   LIG    1       -1.293  -0.775   0.010  0.00  0.00    +0.130 C 
BRANCH   9  11
ATOM     10  C   LIG    1       -0.016   1.306   0.009  0.00  0.00    +0.010 C 
ATOM     11  C   LIG    1        0.002  -0.004   0.002  0.00  0.00    -0.120 C 
ATOM     12  C   LIG    1        1.317  -0.740  -0.015  0.00  0.00    +0.070 C 
ENDBRANCH   9  11
ENDBRANCH   1   9
TORSDOF 2
ENDMDL
MODEL       95
REMARK  Name = ZINC000071795291
REMARK                            x       y       z     vdW  Elec       q    Type
REMARK                         _______ _______ _______ _____ _____    ______ ____
ROOT
ATOM      1  C   LIG    1       -1.674  -1.131  -1.403  0.00  0.00    -0.060 A 
ATOM      2  C   LIG    1       -1.153  -2.288  -2.006  0.00  0.00    -0.050 A 
ATOM      3  C   LIG    1       -0.272  -3.137  -1.314  0.00  0.00    +0.020 A 
ATOM      4  C   LIG    1        0.213  -4.250  -1.930  0.00  0.00    +0.000 A 
ATOM      5  C   LIG    1       -0.151  -4.563  -3.238  0.00  0.00    +0.000 A 
ATOM      6  C   LIG    1       -1.001  -3.764  -3.939  0.00  0.00    +0.020 A 
ATOM      7  C   LIG    1       -1.524  -2.607  -3.336  0.00  0.00    -0.050 A 
ATOM      8  C   LIG    1       -2.405  -1.758  -4.028  0.00  0.00    +0.020 A 
ATOM      9  C   LIG    1       -2.891  -0.646  -3.412  0.00  0.00    +0.010 A 
ATOM     10  C   LIG    1       -2.530  -0.336  -2.102  0.00  0.00    +0.010 A 
ENDROOT
BRANCH   1  11
ATOM     11  C   LIG    1       -1.293  -0.775   0.010  0.00  0.00    +0.110 C 
BRANCH  11  13
ATOM     12  C   LIG    1       -0.016   1.306   0.009  0.00  0.00    +0.010 C 
ATOM     13  C   LIG    1        0.002  -0.004   0.002  0.00  0.00    -0.120 C 
ATOM     14  C   LIG    1        1.317  -0.740  -0.015  0.00  0.00    +0.070 C 
ENDBRANCH  11  13
ENDBRANCH   1  11
TORSDOF 2
ENDMDL
MODEL       96
REMARK  Name = ZINC000071795216
REMARK                            x       y       z     vdW  Elec       q    Type
REMARK                         _______ _______ _______ _____ _____    ______ ____
ROOT
ATOM      1  C   LIG    1       -1.674  -1.131  -1.403  0.00  0.00    -0.100 A 
ATOM      2  C   LIG    1       -2.539  -0.318  -2.111  0.00  0.00    +0.070 A 
ATOM      3  C   LIG    1       -2.890  -0.644  -3.408  0.00  0.00    +0.020 A 
ATOM      4  C   LIG    1       -2.375  -1.784  -3.999  0.00  0.00    -0.010 A 
ATOM      5  C   LIG    1       -1.509  -2.599  -3.292  0.00  0.00    +0.010 A 
ATOM      6 CL   LIG    1       -2.816  -2.192  -5.628  0.00  0.00    -0.050 Cl
ATOM      7  C   LIG    1       -1.154  -2.270  -1.996  0.00  0.00    +0.120 A 
ATOM      8  F   LIG    1       -0.308  -3.064  -1.304  0.00  0.00    -0.130 F 
ENDROOT
BRANCH   1   9
ATOM      9  C   LIG    1       -1.293  -0.775   0.010  0.00  0.00    +0.130 C 
BRANCH   9  11
ATOM     10  C   LIG    1       -0.016   1.306   0.009  0.00  0.00    +0.010 C 
ATOM     11  C   LIG    1        0.002  -0.004   0.002  0.00  0.00    -0.120 C 
ATOM     12  C   LIG    1        1.317  -0.740  -0.015  0.00  0.00    +0.070 C 
ENDBRANCH   9  11
ENDBRANCH   1   9
TORSDOF 2
ENDMDL
MODEL       97
REMARK  Name = ZINC000043208775
REMARK                            x       y       z     vdW  Elec       q    Type
REMARK                         _______ _______ _______ _____ _____    ______ ____
ROOT
ATOM      1  C   LIG    1        1.709  -1.101   1.395  0.00  0.00    -0.080 A 
ATOM      2  C   LIG    1        2.467  -0.222   2.147  0.00  0.00    +0.030 A 
ATOM      3  C   LIG    1        2.827  -0.549   3.439  0.00  0.00    +0.030 A 
ATOM      4  C   LIG    1        2.427  -1.763   3.984  0.00  0.00    -0.090 A 
ATOM      5  C   LIG    1        1.665  -2.644   3.226  0.00  0.00    -0.010 A 
ATOM      6  C   LIG    1        1.304  -2.307   1.936  0.00  0.00    +0.020 A 
ENDROOT
BRANCH   1   7
ATOM      7  C   LIG    1        1.317  -0.740  -0.015  0.00  0.00    +0.110 C 
BRANCH   7   9
ATOM      8  C   LIG    1       -0.016   1.306   0.009  0.00  0.00    +0.010 C 
ATOM      9  C   LIG    1        0.002  -0.004   0.002  0.00  0.00    -0.120 C 
ATOM     10  C   LIG    1       -1.293  -0.775   0.010  0.00  0.00    +0.080 C 
ENDBRANCH   7   9
ENDBRANCH   1   7
BRANCH   4  11
ATOM     11  S   LIG    1        2.883  -2.184   5.633  0.00  0.00    -0.120 S 
BRANCH  11  12
ATOM     12  C   LIG    1        2.135  -3.821   5.858  0.00  0.00    +0.070 C 
ATOM     13  C   LIG    1        2.446  -4.335   7.265  0.00  0.00    +0.080 C 
ENDBRANCH  11  12
ENDBRANCH   4  11
TORSDOF 4
ENDMDL
MODEL       98
REMARK  Name = ZINC000071795296
REMARK                            x       y       z     vdW  Elec       q    Type
REMARK                         _______ _______ _______ _____ _____    ______ ____
ROOT
ATOM      1  C   LIG    1       -1.674  -1.131  -1.403  0.00  0.00    -0.070 A 
ATOM      2  C   LIG    1       -2.463  -0.252  -2.143  0.00  0.00    +0.010 A 
ATOM      3  C   LIG    1       -2.825  -0.543  -3.423  0.00  0.00    +0.030 A 
ATOM      4  C   LIG    1       -2.400  -1.747  -4.009  0.00  0.00    -0.060 A 
ATOM      5  C   LIG    1       -2.753  -2.082  -5.327  0.00  0.00    +0.020 A 
ATOM      6  C   LIG    1       -2.323  -3.257  -5.862  0.00  0.00    +0.000 A 
ATOM      7  C   LIG    1       -1.534  -4.136  -5.122  0.00  0.00    +0.000 A 
ATOM      8  C   LIG    1       -1.172  -3.845  -3.843  0.00  0.00    +0.020 A 
ATOM      9  C   LIG    1       -1.598  -2.641  -3.256  0.00  0.00    -0.050 A 
ATOM     10  C   LIG    1       -1.239  -2.304  -1.940  0.00  0.00    +0.030 A 
ENDROOT
BRANCH   1  11
ATOM     11  C   LIG    1       -1.293  -0.775   0.010  0.00  0.00    +0.110 C 
BRANCH  11  13
ATOM     12  C   LIG    1       -0.016   1.306   0.009  0.00  0.00    +0.010 C 
ATOM     13  C   LIG    1        0.002  -0.004   0.002  0.00  0.00    -0.120 C 
ATOM     14  C   LIG    1        1.317  -0.740  -0.015  0.00  0.00    +0.070 C 
ENDBRANCH  11  13
ENDBRANCH   1  11
TORSDOF 2
ENDMDL
MODEL       99
REMARK  Name = ZINC000071790248
REMARK                            x       y       z     vdW  Elec       q    Type
REMARK                         _______ _______ _______ _____ _____    ______ ____
ROOT
ATOM      1  C   LIG    1       -1.674  -1.131  -1.403  0.00  0.00    -0.070 A 
ATOM      2  C   LIG    1       -2.456  -0.266  -2.146  0.00  0.00    +0.060 A 
ATOM      3  C   LIG    1       -2.807  -0.591  -3.443  0.00  0.00    +0.010 A 
ATOM      4  C   LIG    1       -2.375  -1.783  -3.999  0.00  0.00    +0.100 A 
ATOM      5  C   LIG    1       -1.591  -2.649  -3.254  0.00  0.00    -0.070 A 
ATOM      6 CL   LIG    1       -1.049  -4.145  -3.949  0.00  0.00    -0.050 Cl
ATOM      7  F   LIG    1       -2.718  -2.101  -5.266  0.00  0.00    -0.130 F 
ATOM      8  C   LIG    1       -1.238  -2.320  -1.958  0.00  0.00    +0.060 A 
ENDROOT
BRANCH   1   9
ATOM      9  C   LIG    1       -1.293  -0.775   0.010  0.00  0.00    +0.130 C 
BRANCH   9  11
ATOM     10  C   LIG    1       -0.016   1.306   0.009  0.00  0.00    +0.010 C 
ATOM     11  C   LIG    1        0.002  -0.004   0.002  0.00  0.00    -0.120 C 
ATOM     12  C   LIG    1        1.317  -0.740  -0.015  0.00  0.00    +0.070 C 
ENDBRANCH   9  11
ENDBRANCH   1   9
TORSDOF 2
ENDMDL
MODEL      100
REMARK  Name = ZINC000043208736
REMARK                            x       y       z     vdW  Elec       q    Type
REMARK                         _______ _______ _______ _____ _____    ______ ____
ROOT
ATOM      1  C   LIG    1       -1.674  -1.131  -1.403  0.00  0.00    -0.080 A 
ATOM      2  C   LIG    1       -2.456  -0.265  -2.146  0.00  0.00    +0.030 A 
ATOM      3  C   LIG    1       -2.808  -0.587  -3.442  0.00  0.00    +0.030 A 
ATOM      4  C   LIG    1       -2.374  -1.784  -4.000  0.00  0.00    -0.090 A 
ATOM      5  C   LIG    1       -1.589  -2.652  -3.251  0.00  0.00    -0.010 A 
ATOM      6  C   LIG    1       -1.237  -2.321  -1.958  0.00  0.00    +0.020 A 
ENDROOT
BRANCH   4   7
ATOM      7  S   LIG    1       -2.820  -2.200  -5.653  0.00  0.00    -0.120 S 
ATOM      8  C   LIG    1       -2.028  -3.813  -5.896  0.00  0.00    +0.130 C 
ENDBRANCH   4   7
BRANCH   1   9
ATOM      9  C   LIG    1       -1.293  -0.775   0.010  0.00  0.00    +0.110 C 
BRANCH   9  11
ATOM     10  C   LIG    1       -0.016   1.306   0.009  0.00  0.00    +0.010 C 
ATOM     11  C   LIG    1        0.002  -0.004   0.002  0.00  0.00    -0.120 C 
ATOM     12  C   LIG    1        1.317  -0.740  -0.015  0.00  0.00    +0.070 C 
ENDBRANCH   9  11
ENDBRANCH   1   9
TORSDOF 3
ENDMDL
MODEL      101
REMARK  Name = ZINC000004024427
REMARK                            x       y       z     vdW  Elec       q    Type
REMARK                         _______ _______ _______ _____ _____    ______ ____
ROOT
ATOM      1  C   LIG    1        1.232  -0.733  -0.021  0.00  0.00    +0.000 C 
ATOM      2  C   LIG    1        1.460  -1.591  -1.270  0.00  0.00    +0.030 C 
ATOM      3  C   LIG    1        2.836  -2.257  -1.175  0.00  0.00    -0.010 C 
ATOM      4  C   LIG    1        2.908  -3.079   0.115  0.00  0.00    +0.190 C 
ATOM      5  O   LIG    1        2.657  -2.228   1.235  0.00  0.00    -0.370 OA
ATOM      6  C   LIG    1        1.857  -4.189   0.072  0.00  0.00    +0.000 C 
ATOM      7  C   LIG    1        1.367  -1.613   1.225  0.00  0.00    +0.170 C 
ENDROOT
BRANCH   1   9
ATOM      8  C   LIG    1       -0.299   1.168  -0.060  0.00  0.00    +0.010 C 
ATOM      9  C   LIG    1       -0.150  -0.133  -0.067  0.00  0.00    -0.120 C 
ATOM     10  C   LIG    1       -1.359  -1.030  -0.120  0.00  0.00    +0.070 C 
ENDBRANCH   1   9
BRANCH   7  11
ATOM     11  C   LIG    1        1.202  -0.753   2.480  0.00  0.00    +0.040 C 
BRANCH  11  12
ATOM     12  C   LIG    1        1.257  -1.646   3.721  0.00  0.00    -0.020 C 
ATOM     13  C   LIG    1        0.046  -2.581   3.731  0.00  0.00    +0.000 C 
ATOM     14  C   LIG    1        1.238  -0.774   4.978  0.00  0.00    +0.000 C 
ENDBRANCH  11  12
ENDBRANCH   7  11
TORSDOF 3
ENDMDL
MODEL      102
REMARK  Name = ZINC000229742132
REMARK                            x       y       z     vdW  Elec       q    Type
REMARK                         _______ _______ _______ _____ _____    ______ ____
ROOT
ATOM      1  C   LIG    1        1.300  -0.770  -0.008  0.00  0.00    -0.010 C 
ATOM      2  C   LIG    1        1.418  -1.560  -1.315  0.00  0.00    +0.020 C 
ATOM      3  C   LIG    1        0.283  -2.587  -1.383  0.00  0.00    -0.010 C 
ATOM      4  C   LIG    1        0.350  -3.492  -0.149  0.00  0.00    +0.150 C 
ATOM      5  O   LIG    1        0.266  -2.691   1.032  0.00  0.00    -0.360 OA
ATOM      6  C   LIG    1       -0.816  -4.482  -0.179  0.00  0.00    +0.040 C 
ATOM      7  C   LIG    1        1.328  -1.744   1.174  0.00  0.00    +0.160 C 
ENDROOT
BRANCH   1   9
ATOM      8  C   LIG    1        0.015   1.306   0.002  0.00  0.00    -0.020 C 
ATOM      9  C   LIG    1        0.002  -0.004   0.002  0.00  0.00    -0.100 C 
ATOM     10  C   LIG    1       -1.310  -0.745   0.012  0.00  0.00    +0.070 C 
ENDBRANCH   1   9
BRANCH   7  11
ATOM     11  C   LIG    1        1.149  -0.969   2.481  0.00  0.00    +0.040 C 
BRANCH  11  12
ATOM     12  C   LIG    1        1.299  -1.925   3.665  0.00  0.00    -0.020 C 
ATOM     13  C   LIG    1        0.998  -1.177   4.966  0.00  0.00    +0.000 C 
ATOM     14  C   LIG    1        2.730  -2.465   3.707  0.00  0.00    +0.000 C 
ENDBRANCH  11  12
ENDBRANCH   7  11
TORSDOF 3
ENDMDL
MODEL      103
REMARK  Name = ZINC000002106662
REMARK                            x       y       z     vdW  Elec       q    Type
REMARK                         _______ _______ _______ _____ _____    ______ ____
ROOT
ATOM      1  C   LIG    1       -1.435  -0.849   0.019  0.00  0.00    +0.050 C 
ATOM      2  C   LIG    1       -1.394  -1.903  -1.112  0.00  0.00    +0.030 C 
ATOM      3  C   LIG    1       -1.984  -3.141  -0.398  0.00  0.00    +0.060 C 
ATOM      4  C   LIG    1       -1.710  -2.905   1.069  0.00  0.00    -0.130 C 
ATOM      5  C   LIG    1       -1.773  -3.973   2.131  0.00  0.00    +0.090 C 
ATOM      6  C   LIG    1       -1.412  -1.653   1.298  0.00  0.00    -0.130 C 
ENDROOT
BRANCH   1   8
ATOM      7  C   LIG    1        0.968  -0.467  -0.180  0.00  0.00    +0.000 C 
ATOM      8  C   LIG    1       -0.229   0.051  -0.058  0.00  0.00    -0.110 C 
ATOM      9  C   LIG    1       -0.400   1.547   0.007  0.00  0.00    +0.070 C 
ENDBRANCH   1   8
BRANCH   6  10
ATOM     10  C   LIG    1       -1.085  -1.089   2.656  0.00  0.00    +0.080 C 
BRANCH  10  11
ATOM     11  C   LIG    1        0.429  -1.117   2.870  0.00  0.00    +0.040 C 
BRANCH  11  12
ATOM     12  C   LIG    1        0.761  -0.495   4.202  0.00  0.00    +0.350 C 
ATOM     13  O   LIG    1       -0.123  -0.072   4.907  0.00  0.00    -0.460 OA
ATOM     14  C   LIG    1        2.196  -0.401   4.653  0.00  0.00    +0.050 C 
ENDBRANCH  11  12
ENDBRANCH  10  11
ENDBRANCH   6  10
TORSDOF 4
ENDMDL
MODEL      104
REMARK  Name = ZINC000229742122
REMARK                            x       y       z     vdW  Elec       q    Type
REMARK                         _______ _______ _______ _____ _____    ______ ____
ROOT
ATOM      1  C   LIG    1        1.425  -0.862  -0.109  0.00  0.00    +0.000 C 
ATOM      2  C   LIG    1        1.655  -1.768  -1.323  0.00  0.00    +0.020 C 
ATOM      3  C   LIG    1        2.943  -2.569  -1.110  0.00  0.00    -0.010 C 
ATOM      4  C   LIG    1        2.832  -3.362   0.195  0.00  0.00    +0.140 C 
ATOM      5  O   LIG    1        2.588  -2.463   1.278  0.00  0.00    -0.370 OA
ATOM      6  C   LIG    1        4.138  -4.119   0.444  0.00  0.00    +0.040 C 
ATOM      7  C   LIG    1        1.373  -1.720   1.158  0.00  0.00    +0.200 C 
ENDROOT
BRANCH   1   9
ATOM      8  C   LIG    1       -0.750  -0.522  -1.166  0.00  0.00    +0.000 C 
ATOM      9  C   LIG    1        0.121  -0.124  -0.272  0.00  0.00    -0.120 C 
ATOM     10  C   LIG    1       -0.182   1.071   0.595  0.00  0.00    +0.070 C 
ENDBRANCH   1   9
BRANCH   7  11
ATOM     11  C   LIG    1        0.190  -2.686   1.069  0.00  0.00    +0.000 C 
BRANCH  11  12
ATOM     12  C   LIG    1        0.100  -3.501   2.361  0.00  0.00    -0.020 C 
ATOM     13  C   LIG    1       -1.004  -4.552   2.225  0.00  0.00    +0.000 C 
ATOM     14  C   LIG    1       -0.224  -2.570   3.531  0.00  0.00    +0.010 C 
ENDBRANCH  11  12
ENDBRANCH   7  11
TORSDOF 3
ENDMDL
MODEL      105
REMARK  Name = ZINC000004024425
REMARK                            x       y       z     vdW  Elec       q    Type
REMARK                         _______ _______ _______ _____ _____    ______ ____
ROOT
ATOM      1  C   LIG    1        1.233  -0.733  -0.021  0.00  0.00    +0.000 C 
ATOM      2  C   LIG    1        1.460  -1.591  -1.270  0.00  0.00    +0.030 C 
ATOM      3  C   LIG    1        2.836  -2.257  -1.175  0.00  0.00    -0.010 C 
ATOM      4  C   LIG    1        2.908  -3.079   0.115  0.00  0.00    +0.150 C 
ATOM      5  O   LIG    1        2.657  -2.228   1.235  0.00  0.00    -0.370 OA
ATOM      6  C   LIG    1        4.300  -3.701   0.247  0.00  0.00    +0.040 C 
ATOM      7  C   LIG    1        1.367  -1.613   1.225  0.00  0.00    +0.160 C 
ENDROOT
BRANCH   1   9
ATOM      8  C   LIG    1       -0.297   1.169  -0.061  0.00  0.00    +0.010 C 
ATOM      9  C   LIG    1       -0.148  -0.133  -0.067  0.00  0.00    -0.120 C 
ATOM     10  C   LIG    1       -1.358  -1.029  -0.120  0.00  0.00    +0.070 C 
ENDBRANCH   1   9
BRANCH   7  11
ATOM     11  C   LIG    1        1.202  -0.753   2.480  0.00  0.00    +0.040 C 
BRANCH  11  12
ATOM     12  C   LIG    1        1.257  -1.646   3.721  0.00  0.00    -0.020 C 
ATOM     13  C   LIG    1        0.046  -2.580   3.731  0.00  0.00    +0.000 C 
ATOM     14  C   LIG    1        1.238  -0.774   4.978  0.00  0.00    +0.000 C 
ENDBRANCH  11  12
ENDBRANCH   7  11
TORSDOF 3
ENDMDL
MODEL      106
REMARK  Name = ZINC000002556864
REMARK                            x       y       z     vdW  Elec       q    Type
REMARK                         _______ _______ _______ _____ _____    ______ ____
ROOT
ATOM      1  C   LIG    1       -1.267  -0.760   0.010  0.00  0.00    -0.050 A 
ATOM      2  C   LIG    1       -1.595  -1.562   1.118  0.00  0.00    +0.020 A 
ATOM      3  C   LIG    1       -2.755  -2.266   1.149  0.00  0.00    +0.030 A 
ATOM      4  C   LIG    1       -3.648  -2.199   0.064  0.00  0.00    -0.050 A 
ATOM      5  C   LIG    1       -4.855  -2.918   0.073  0.00  0.00    +0.020 A 
ATOM      6  C   LIG    1       -5.699  -2.834  -0.991  0.00  0.00    +0.000 A 
ATOM      7  C   LIG    1       -5.386  -2.043  -2.095  0.00  0.00    +0.000 A 
ATOM      8  C   LIG    1       -4.226  -1.333  -2.141  0.00  0.00    +0.020 A 
ATOM      9  C   LIG    1       -3.329  -1.394  -1.059  0.00  0.00    -0.050 A 
ATOM     10  C   LIG    1       -2.128  -0.669  -1.071  0.00  0.00    +0.030 A 
ENDROOT
BRANCH   1  12
ATOM     11  C   LIG    1       -0.016   1.322   0.009  0.00  0.00    +0.030 C 
ATOM     12  C   LIG    1        0.002  -0.004   0.002  0.00  0.00    -0.090 C 
ATOM     13  C   LIG    1        1.317  -0.740  -0.015  0.00  0.00    +0.080 C 
ENDBRANCH   1  12
TORSDOF 1
ENDMDL
MODEL      107
REMARK  Name = ZINC000002568005
REMARK                            x       y       z     vdW  Elec       q    Type
REMARK                         _______ _______ _______ _____ _____    ______ ____
ROOT
ATOM      1  C   LIG    1       -1.268  -0.761   0.010  0.00  0.00    -0.050 A 
ATOM      2  C   LIG    1       -2.121  -0.681   1.109  0.00  0.00    +0.020 A 
ATOM      3  C   LIG    1       -3.316  -1.397   1.108  0.00  0.00    -0.050 A 
ATOM      4  C   LIG    1       -3.651  -2.188   0.008  0.00  0.00    +0.010 A 
ATOM      5  C   LIG    1       -2.802  -2.262  -1.078  0.00  0.00    +0.010 A 
ATOM      6  C   LIG    1       -1.618  -1.551  -1.086  0.00  0.00    +0.010 A 
ENDROOT
BRANCH   1   8
ATOM      7  C   LIG    1       -0.016   1.321   0.009  0.00  0.00    +0.030 C 
ATOM      8  C   LIG    1        0.002  -0.004   0.002  0.00  0.00    -0.090 C 
ATOM      9  C   LIG    1        1.317  -0.740  -0.015  0.00  0.00    +0.080 C 
ENDBRANCH   1   8
BRANCH   3  10
ATOM     10  C   LIG    1       -4.227  -1.319   2.270  0.00  0.00    -0.090 C 
ATOM     11  C   LIG    1       -4.489  -2.545   3.106  0.00  0.00    +0.090 C 
ATOM     12  C   LIG    1       -4.813  -0.170   2.576  0.00  0.00    +0.030 C 
ENDBRANCH   3  10
TORSDOF 2
ENDMDL
MODEL      108
REMARK  Name = ZINC000001609496
REMARK                            x       y       z     vdW  Elec       q    Type
REMARK                         _______ _______ _______ _____ _____    ______ ____
ROOT
ATOM      1  C   LIG    1        1.292  -0.726  -0.014  0.00  0.00    -0.060 A 
ATOM      2  C   LIG    1        1.647  -1.502  -1.118  0.00  0.00    +0.010 A 
ATOM      3  C   LIG    1        2.852  -2.173  -1.127  0.00  0.00    +0.000 A 
ATOM      4  C   LIG    1        3.708  -2.078  -0.044  0.00  0.00    -0.080 A 
ATOM      5  C   LIG    1        3.363  -1.309   1.053  0.00  0.00    +0.010 A 
ATOM      6  C   LIG    1        2.163  -0.628   1.072  0.00  0.00    +0.010 A 
ENDROOT
BRANCH   1   8
ATOM      7  C   LIG    1       -0.016   1.321   0.009  0.00  0.00    +0.020 C 
ATOM      8  C   LIG    1        0.002  -0.004   0.002  0.00  0.00    -0.090 C 
ATOM      9  C   LIG    1       -1.293  -0.775   0.010  0.00  0.00    +0.090 C 
ENDBRANCH   1   8
BRANCH   4  10
ATOM     10  C   LIG    1        5.023  -2.814  -0.061  0.00  0.00    +0.020 C 
ATOM     11  C   LIG    1        5.072  -3.796   1.111  0.00  0.00    +0.040 C 
ATOM     12  C   LIG    1        6.171  -1.810   0.067  0.00  0.00    +0.030 C 
ENDBRANCH   4  10
TORSDOF 2
ENDMDL
MODEL      109
REMARK  Name = ZINC000002164029
REMARK                            x       y       z     vdW  Elec       q    Type
REMARK                         _______ _______ _______ _____ _____    ______ ____
ROOT
ATOM      1  C   LIG    1        1.292  -0.725  -0.014  0.00  0.00    -0.060 A 
ATOM      2  C   LIG    1        1.640  -1.505  -1.131  0.00  0.00    +0.030 A 
ATOM      3  C   LIG    1        2.819  -2.178  -1.169  0.00  0.00    +0.020 A 
ATOM      4  C   LIG    1        3.710  -2.099  -0.083  0.00  0.00    -0.010 A 
ATOM      5  C   LIG    1        4.936  -2.784  -0.102  0.00  0.00    -0.010 A 
ATOM      6  C   LIG    1        5.781  -2.688   0.967  0.00  0.00    +0.130 A 
ATOM      7  C   LIG    1        5.443  -1.914   2.082  0.00  0.00    -0.060 A 
ATOM      8  C   LIG    1        4.264  -1.238   2.132  0.00  0.00    +0.070 A 
ATOM      9  C   LIG    1        3.369  -1.315   1.049  0.00  0.00    -0.080 A 
ATOM     10  C   LIG    1        2.149  -0.623   1.068  0.00  0.00    +0.050 A 
ENDROOT
BRANCH   1  12
ATOM     11  C   LIG    1       -0.016   1.322   0.009  0.00  0.00    +0.020 C 
ATOM     12  C   LIG    1        0.002  -0.004   0.002  0.00  0.00    -0.090 C 
ATOM     13  C   LIG    1       -1.293  -0.775   0.010  0.00  0.00    +0.080 C 
ENDBRANCH   1  12
BRANCH   6  14
ATOM     14  O   LIG    1        6.966  -3.352   0.947  0.00  0.00    -0.320 OA
ATOM     15  C   LIG    1        7.808  -3.213   2.093  0.00  0.00    +0.250 C 
ENDBRANCH   6  14
TORSDOF 2
ENDMDL
MODEL      110
REMARK  Name = ZINC000054959970
REMARK                            x       y       z     vdW  Elec       q    Type
REMARK                         _______ _______ _______ _____ _____    ______ ____
ROOT
ATOM      1  C   LIG    1        1.292  -0.726  -0.014  0.00  0.00    -0.020 A 
ATOM      2  C   LIG    1        1.647  -1.502  -1.118  0.00  0.00    +0.030 A 
ATOM      3  C   LIG    1        2.852  -2.173  -1.127  0.00  0.00    +0.070 A 
ATOM      4  C   LIG    1        3.708  -2.078  -0.044  0.00  0.00    -0.190 A 
ATOM      5  C   LIG    1        3.363  -1.309   1.053  0.00  0.00    +0.070 A 
ATOM      6  C   LIG    1        2.163  -0.628   1.072  0.00  0.00    +0.030 A 
ENDROOT
BRANCH   4   7
ATOM      7  C   LIG    1        5.023  -2.814  -0.061  0.00  0.00    +0.510 C 
ATOM      8  F   LIG    1        4.897  -3.977  -0.828  0.00  0.00    -0.180 F 
ATOM      9  F   LIG    1        5.383  -3.155   1.248  0.00  0.00    -0.180 F 
ATOM     10  F   LIG    1        6.010  -1.993  -0.617  0.00  0.00    -0.180 F 
ENDBRANCH   4   7
BRANCH   1  12
ATOM     11  C   LIG    1       -0.016   1.321   0.009  0.00  0.00    +0.040 C 
ATOM     12  C   LIG    1        0.002  -0.004   0.002  0.00  0.00    -0.100 C 
ATOM     13  C   LIG    1       -1.293  -0.775   0.010  0.00  0.00    +0.090 C 
ENDBRANCH   1  12
TORSDOF 2
ENDMDL
MODEL      111
REMARK  Name = ZINC000070632473
REMARK                            x       y       z     vdW  Elec       q    Type
REMARK                         _______ _______ _______ _____ _____    ______ ____
ROOT
ATOM      1  C   LIG    1        1.289  -0.724  -0.014  0.00  0.00    -0.040 A 
ATOM      2  C   LIG    1        2.060  -0.786  -1.201  0.00  0.00    -0.040 A 
ATOM      3  C   LIG    1        1.627  -0.171  -2.384  0.00  0.00    +0.030 A 
ATOM      4  C   LIG    1        2.394  -0.251  -3.506  0.00  0.00    +0.000 A 
ATOM      5  C   LIG    1        3.607  -0.936  -3.498  0.00  0.00    +0.000 A 
ATOM      6  C   LIG    1        4.059  -1.546  -2.368  0.00  0.00    +0.020 A 
ATOM      7  C   LIG    1        3.293  -1.484  -1.190  0.00  0.00    -0.050 A 
ATOM      8  C   LIG    1        3.729  -2.101  -0.005  0.00  0.00    +0.020 A 
ATOM      9  C   LIG    1        2.970  -2.027   1.123  0.00  0.00    +0.020 A 
ATOM     10  C   LIG    1        1.761  -1.343   1.133  0.00  0.00    +0.010 A 
ENDROOT
BRANCH   1  12
ATOM     11  C   LIG    1       -0.016   1.324   0.009  0.00  0.00    +0.030 C 
ATOM     12  C   LIG    1        0.002  -0.004   0.002  0.00  0.00    -0.090 C 
ATOM     13  C   LIG    1       -1.293  -0.775   0.010  0.00  0.00    +0.100 C 
ENDBRANCH   1  12
TORSDOF 1
ENDMDL
MODEL      112
REMARK  Name = ZINC000001736677
REMARK                            x       y       z     vdW  Elec       q    Type
REMARK                         _______ _______ _______ _____ _____    ______ ____
ROOT
ATOM      1  C   LIG    1       -1.267  -0.760   0.010  0.00  0.00    -0.050 A 
ATOM      2  C   LIG    1       -1.597  -1.558   1.108  0.00  0.00    +0.010 A 
ATOM      3  C   LIG    1       -2.780  -2.262   1.115  0.00  0.00    +0.010 A 
ATOM      4  C   LIG    1       -3.650  -2.179   0.025  0.00  0.00    -0.050 A 
ATOM      5  C   LIG    1       -3.320  -1.379  -1.072  0.00  0.00    +0.010 A 
ATOM      6  C   LIG    1       -2.139  -0.672  -1.078  0.00  0.00    +0.010 A 
ENDROOT
BRANCH   1   8
ATOM      7  C   LIG    1       -0.016   1.322   0.009  0.00  0.00    +0.030 C 
ATOM      8  C   LIG    1        0.002  -0.004   0.002  0.00  0.00    -0.090 C 
ATOM      9  C   LIG    1        1.317  -0.740  -0.015  0.00  0.00    +0.080 C 
ENDBRANCH   1   8
BRANCH   4  10
ATOM     10  C   LIG    1       -4.918  -2.935   0.033  0.00  0.00    -0.090 C 
ATOM     11  C   LIG    1       -5.143  -4.039  -0.967  0.00  0.00    +0.080 C 
ATOM     12  C   LIG    1       -5.859  -2.642   0.921  0.00  0.00    +0.030 C 
ENDBRANCH   4  10
TORSDOF 2
ENDMDL
MODEL      113
REMARK  Name = ZINC000098175101
REMARK                            x       y       z     vdW  Elec       q    Type
REMARK                         _______ _______ _______ _____ _____    ______ ____
ROOT
ATOM      1  C   LIG    1       -0.016   1.306   0.009  0.00  0.00    +0.000 C 
ATOM      2  C   LIG    1        0.002  -0.004   0.002  0.00  0.00    -0.120 C 
ENDROOT
BRANCH   2   3
ATOM      3  C   LIG    1        1.317  -0.740  -0.015  0.00  0.00    +0.050 C 
BRANCH   3   4
ATOM      4  C   LIG    1        1.715  -1.106   1.417  0.00  0.00    +0.010 C 
BRANCH   4   5
ATOM      5  C   LIG    1        3.050  -1.853   1.400  0.00  0.00    -0.010 C 
ATOM      6  C   LIG    1        3.447  -2.219   2.831  0.00  0.00    +0.000 C 
ENDBRANCH   4   5
ENDBRANCH   3   4
ENDBRANCH   2   3
BRANCH   2   7
ATOM      7  C   LIG    1       -1.293  -0.775   0.010  0.00  0.00    +0.050 C 
BRANCH   7   8
ATOM      8  C   LIG    1       -1.680  -1.137  -1.425  0.00  0.00    +0.010 C 
BRANCH   8   9
ATOM      9  C   LIG    1       -2.995  -1.919  -1.417  0.00  0.00    -0.010 C 
ATOM     10  C   LIG    1       -3.382  -2.281  -2.852  0.00  0.00    +0.000 C 
ENDBRANCH   8   9
ENDBRANCH   7   8
ENDBRANCH   2   7
TORSDOF 6
ENDMDL
MODEL      114
REMARK  Name = ZINC000033414751
REMARK                            x       y       z     vdW  Elec       q    Type
REMARK                         _______ _______ _______ _____ _____    ______ ____
ROOT
ATOM      1  C   LIG    1       -2.995  -1.919  -1.417  0.00  0.00    +0.010 C 
ENDROOT
BRANCH   1   2
ATOM      2  C   LIG    1       -1.680  -1.137  -1.425  0.00  0.00    +0.020 C 
BRANCH   2   3
ATOM      3  C   LIG    1       -1.293  -0.775   0.010  0.00  0.00    +0.070 C 
BRANCH   3   5
ATOM      4  C   LIG    1       -0.016   1.307   0.009  0.00  0.00    +0.050 C 
ATOM      5  C   LIG    1        0.002  -0.004   0.002  0.00  0.00    -0.070 C 
ATOM      6 CL   LIG    1        1.517  -0.852  -0.017  0.00  0.00    -0.090 Cl
ENDBRANCH   3   5
ENDBRANCH   2   3
ENDBRANCH   1   2
BRANCH   1   7
ATOM      7  C   LIG    1       -3.382  -2.281  -2.852  0.00  0.00    +0.020 C 
BRANCH   7   8
ATOM      8  C   LIG    1       -4.697  -3.064  -2.844  0.00  0.00    +0.020 C 
BRANCH   8   9
ATOM      9  C   LIG    1       -5.084  -3.425  -4.279  0.00  0.00    +0.190 C 
BRANCH   9  10
ATOM     10  C   LIG    1       -6.349  -4.178  -4.271  0.00  0.00    +0.200 C 
ATOM     11  N   LIG    1       -7.325  -4.760  -4.265  0.00  0.00    -0.440 NA
ENDBRANCH   9  10
ENDBRANCH   8   9
ENDBRANCH   7   8
ENDBRANCH   1   7
TORSDOF 7
ENDMDL
MODEL      115
REMARK  Name = ZINC000071795127
REMARK                            x       y       z     vdW  Elec       q    Type
REMARK                         _______ _______ _______ _____ _____    ______ ____
ROOT
ATOM      1  C   LIG    1       -2.975  -1.908  -1.417  0.00  0.00    -0.050 A 
ATOM      2  C   LIG    1       -2.957  -3.286  -1.314  0.00  0.00    +0.000 A 
ATOM      3  C   LIG    1       -4.144  -3.995  -1.307  0.00  0.00    +0.040 A 
ATOM      4  C   LIG    1       -5.350  -3.326  -1.401  0.00  0.00    -0.020 A 
ATOM      5  C   LIG    1       -5.369  -1.945  -1.504  0.00  0.00    +0.100 A 
ATOM      6  F   LIG    1       -6.547  -1.290  -1.597  0.00  0.00    -0.140 F 
ATOM      7  C   LIG    1       -4.180  -1.236  -1.506  0.00  0.00    -0.020 A 
ENDROOT
BRANCH   1   8
ATOM      8  C   LIG    1       -1.680  -1.137  -1.425  0.00  0.00    +0.080 C 
BRANCH   8   9
ATOM      9  C   LIG    1       -1.293  -0.775   0.010  0.00  0.00    +0.090 C 
BRANCH   9  11
ATOM     10  C   LIG    1       -0.016   1.307   0.009  0.00  0.00    +0.060 C 
ATOM     11  C   LIG    1        0.002  -0.004   0.002  0.00  0.00    -0.070 C 
ATOM     12 CL   LIG    1        1.517  -0.852  -0.017  0.00  0.00    -0.090 Cl
ENDBRANCH   9  11
ENDBRANCH   8   9
ENDBRANCH   1   8
TORSDOF 3
ENDMDL
MODEL      116
REMARK  Name = ZINC000071795102
REMARK                            x       y       z     vdW  Elec       q    Type
REMARK                         _______ _______ _______ _____ _____    ______ ____
ROOT
ATOM      1  C   LIG    1       -1.674  -1.131  -1.403  0.00  0.00    -0.090 A 
ATOM      2  C   LIG    1       -2.456  -0.267  -2.147  0.00  0.00    +0.010 A 
ATOM      3  C   LIG    1       -2.806  -0.593  -3.444  0.00  0.00    +0.000 A 
ATOM      4  C   LIG    1       -2.374  -1.784  -3.997  0.00  0.00    -0.090 A 
ATOM      5  C   LIG    1       -1.591  -2.648  -3.254  0.00  0.00    -0.080 A 
ATOM      6  C   LIG    1       -1.120  -3.946  -3.858  0.00  0.00    +0.090 C 
ATOM      7  C   LIG    1       -2.756  -2.140  -5.411  0.00  0.00    +0.090 C 
ATOM      8  C   LIG    1       -1.238  -2.320  -1.959  0.00  0.00    +0.020 A 
ENDROOT
BRANCH   1   9
ATOM      9  C   LIG    1       -1.293  -0.775   0.010  0.00  0.00    +0.140 C 
BRANCH   9  11
ATOM     10  C   LIG    1       -0.016   1.307   0.009  0.00  0.00    +0.060 C 
ATOM     11  C   LIG    1        0.002  -0.004   0.002  0.00  0.00    -0.060 C 
ATOM     12 CL   LIG    1        1.517  -0.852  -0.017  0.00  0.00    -0.090 Cl
ENDBRANCH   9  11
ENDBRANCH   1   9
TORSDOF 2
ENDMDL
MODEL      117
REMARK  Name = ZINC000071795203
REMARK                            x       y       z     vdW  Elec       q    Type
REMARK                         _______ _______ _______ _____ _____    ______ ____
ROOT
ATOM      1  C   LIG    1       -1.674  -1.131  -1.403  0.00  0.00    -0.090 A 
ATOM      2  C   LIG    1       -2.539  -0.318  -2.111  0.00  0.00    +0.020 A 
ATOM      3  C   LIG    1       -2.890  -0.644  -3.408  0.00  0.00    -0.090 A 
ATOM      4  C   LIG    1       -2.374  -1.784  -3.998  0.00  0.00    -0.080 A 
ATOM      5  C   LIG    1       -1.508  -2.596  -3.290  0.00  0.00    +0.000 A 
ATOM      6  C   LIG    1       -2.755  -2.139  -5.411  0.00  0.00    +0.090 C 
ATOM      7  C   LIG    1       -3.833   0.242  -4.180  0.00  0.00    +0.080 C 
ATOM      8  C   LIG    1       -1.155  -2.268  -1.995  0.00  0.00    -0.070 A 
ATOM      9  C   LIG    1       -0.211  -3.154  -1.223  0.00  0.00    +0.090 C 
ENDROOT
BRANCH   1  10
ATOM     10  C   LIG    1       -1.293  -0.775   0.010  0.00  0.00    +0.130 C 
BRANCH  10  12
ATOM     11  C   LIG    1       -0.016   1.307   0.009  0.00  0.00    +0.050 C 
ATOM     12  C   LIG    1        0.002  -0.004   0.002  0.00  0.00    -0.060 C 
ATOM     13 CL   LIG    1        1.517  -0.852  -0.017  0.00  0.00    -0.080 Cl
ENDBRANCH  10  12
ENDBRANCH   1  10
TORSDOF 2
ENDMDL
MODEL      118
REMARK  Name = ZINC000001704971
REMARK                            x       y       z     vdW  Elec       q    Type
REMARK                         _______ _______ _______ _____ _____    ______ ____
ROOT
ATOM      1  C   LIG    1       -3.130  -2.309  -1.441  0.00  0.00    -0.090 A 
ATOM      2  C   LIG    1       -3.768  -2.312  -0.206  0.00  0.00    -0.020 A 
ATOM      3  C   LIG    1       -4.966  -2.982  -0.051  0.00  0.00    +0.030 A 
ATOM      4  C   LIG    1       -5.531  -3.648  -1.124  0.00  0.00    +0.010 A 
ATOM      5  C   LIG    1       -4.898  -3.647  -2.354  0.00  0.00    +0.030 A 
ATOM      6  C   LIG    1       -3.704  -2.975  -2.517  0.00  0.00    +0.030 A 
ENDROOT
BRANCH   1   7
ATOM      7  S   LIG    1       -1.601  -1.456  -1.643  0.00  0.00    -0.090 S 
BRANCH   7   8
ATOM      8  C   LIG    1       -1.293  -0.775   0.010  0.00  0.00    +0.140 C 
BRANCH   8  10
ATOM      9  C   LIG    1       -0.016   1.307   0.009  0.00  0.00    +0.110 C 
ATOM     10  C   LIG    1        0.002  -0.004   0.002  0.00  0.00    -0.070 C 
ATOM     11 CL   LIG    1        1.517  -0.852  -0.017  0.00  0.00    -0.070 Cl
ENDBRANCH   8  10
ENDBRANCH   7   8
ENDBRANCH   1   7
TORSDOF 3
ENDMDL
MODEL      119
REMARK  Name = ZINC000002245304
REMARK                            x       y       z     vdW  Elec       q    Type
REMARK                         _______ _______ _______ _____ _____    ______ ____
ROOT
ATOM      1  C   LIG    1       -2.975  -1.908  -1.417  0.00  0.00    -0.080 A 
ATOM      2  C   LIG    1       -2.958  -3.286  -1.314  0.00  0.00    +0.000 A 
ATOM      3  C   LIG    1       -4.146  -3.993  -1.307  0.00  0.00    +0.010 A 
ATOM      4  C   LIG    1       -5.350  -3.322  -1.401  0.00  0.00    +0.000 A 
ATOM      5  C   LIG    1       -5.367  -1.944  -1.503  0.00  0.00    -0.080 A 
ATOM      6  C   LIG    1       -6.681  -1.212  -1.606  0.00  0.00    +0.090 C 
ATOM      7  C   LIG    1       -4.180  -1.236  -1.506  0.00  0.00    +0.000 A 
ENDROOT
BRANCH   1   8
ATOM      8  C   LIG    1       -1.680  -1.137  -1.425  0.00  0.00    +0.080 C 
BRANCH   8   9
ATOM      9  C   LIG    1       -1.293  -0.775   0.010  0.00  0.00    +0.090 C 
BRANCH   9  11
ATOM     10  C   LIG    1       -0.016   1.307   0.009  0.00  0.00    +0.050 C 
ATOM     11  C   LIG    1        0.002  -0.004   0.002  0.00  0.00    -0.070 C 
ATOM     12 CL   LIG    1        1.517  -0.852  -0.017  0.00  0.00    -0.090 Cl
ENDBRANCH   9  11
ENDBRANCH   8   9
ENDBRANCH   1   8
TORSDOF 3
ENDMDL
MODEL      120
REMARK  Name = ZINC000002245312
REMARK                            x       y       z     vdW  Elec       q    Type
REMARK                         _______ _______ _______ _____ _____    ______ ____
ROOT
ATOM      1  C   LIG    1       -2.975  -1.908  -1.417  0.00  0.00    -0.090 A 
ATOM      2  C   LIG    1       -2.958  -3.286  -1.314  0.00  0.00    +0.010 A 
ATOM      3  C   LIG    1       -4.145  -3.994  -1.307  0.00  0.00    +0.000 A 
ATOM      4  C   LIG    1       -5.350  -3.322  -1.401  0.00  0.00    -0.090 A 
ATOM      5  C   LIG    1       -5.367  -1.944  -1.502  0.00  0.00    +0.000 A 
ATOM      6  C   LIG    1       -6.645  -4.094  -1.394  0.00  0.00    +0.090 C 
ATOM      7  C   LIG    1       -4.180  -1.236  -1.506  0.00  0.00    +0.010 A 
ENDROOT
BRANCH   1   8
ATOM      8  C   LIG    1       -1.680  -1.137  -1.425  0.00  0.00    +0.080 C 
BRANCH   8   9
ATOM      9  C   LIG    1       -1.293  -0.775   0.010  0.00  0.00    +0.090 C 
BRANCH   9  11
ATOM     10  C   LIG    1       -0.016   1.307   0.009  0.00  0.00    +0.050 C 
ATOM     11  C   LIG    1        0.002  -0.004   0.002  0.00  0.00    -0.070 C 
ATOM     12 CL   LIG    1        1.517  -0.852  -0.017  0.00  0.00    -0.090 Cl
ENDBRANCH   9  11
ENDBRANCH   8   9
ENDBRANCH   1   8
TORSDOF 3
ENDMDL
MODEL      121
REMARK  Name = ZINC000071795103
REMARK                            x       y       z     vdW  Elec       q    Type
REMARK                         _______ _______ _______ _____ _____    ______ ____
ROOT
ATOM      1  C   LIG    1       -2.975  -1.908  -1.417  0.00  0.00    -0.090 A 
ATOM      2  C   LIG    1       -2.958  -3.286  -1.314  0.00  0.00    +0.000 A 
ATOM      3  C   LIG    1       -4.146  -3.993  -1.307  0.00  0.00    +0.010 A 
ATOM      4  C   LIG    1       -5.350  -3.322  -1.401  0.00  0.00    -0.090 A 
ATOM      5  C   LIG    1       -5.367  -1.944  -1.502  0.00  0.00    -0.080 A 
ATOM      6  C   LIG    1       -6.681  -1.212  -1.605  0.00  0.00    +0.090 C 
ATOM      7  C   LIG    1       -6.645  -4.094  -1.394  0.00  0.00    +0.090 C 
ATOM      8  C   LIG    1       -4.180  -1.236  -1.506  0.00  0.00    +0.010 A 
ENDROOT
BRANCH   1   9
ATOM      9  C   LIG    1       -1.680  -1.137  -1.425  0.00  0.00    +0.080 C 
BRANCH   9  10
ATOM     10  C   LIG    1       -1.293  -0.775   0.010  0.00  0.00    +0.090 C 
BRANCH  10  12
ATOM     11  C   LIG    1       -0.016   1.307   0.009  0.00  0.00    +0.050 C 
ATOM     12  C   LIG    1        0.002  -0.004   0.002  0.00  0.00    -0.070 C 
ATOM     13 CL   LIG    1        1.517  -0.852  -0.017  0.00  0.00    -0.090 Cl
ENDBRANCH  10  12
ENDBRANCH   9  10
ENDBRANCH   1   9
TORSDOF 3
ENDMDL
MODEL      122
REMARK  Name = ZINC000071795184
REMARK                            x       y       z     vdW  Elec       q    Type
REMARK                         _______ _______ _______ _____ _____    ______ ____
ROOT
ATOM      1  C   LIG    1       -1.674  -1.131  -1.403  0.00  0.00    -0.090 A 
ATOM      2  C   LIG    1       -2.456  -0.267  -2.147  0.00  0.00    -0.070 A 
ATOM      3  C   LIG    1       -2.806  -0.593  -3.444  0.00  0.00    -0.010 A 
ATOM      4  C   LIG    1       -2.374  -1.784  -3.997  0.00  0.00    -0.080 A 
ATOM      5  C   LIG    1       -1.592  -2.648  -3.254  0.00  0.00    -0.010 A 
ATOM      6  C   LIG    1       -2.756  -2.139  -5.411  0.00  0.00    +0.090 C 
ATOM      7  C   LIG    1       -2.926   1.032  -1.544  0.00  0.00    +0.090 C 
ATOM      8  C   LIG    1       -1.238  -2.320  -1.959  0.00  0.00    -0.060 A 
ATOM      9  C   LIG    1       -0.386  -3.262  -1.149  0.00  0.00    +0.100 C 
ENDROOT
BRANCH   1  10
ATOM     10  C   LIG    1       -1.293  -0.775   0.010  0.00  0.00    +0.140 C 
BRANCH  10  12
ATOM     11  C   LIG    1       -0.016   1.307   0.009  0.00  0.00    +0.050 C 
ATOM     12  C   LIG    1        0.002  -0.004   0.002  0.00  0.00    -0.060 C 
ATOM     13 CL   LIG    1        1.517  -0.852  -0.017  0.00  0.00    -0.090 Cl
ENDBRANCH  10  12
ENDBRANCH   1  10
TORSDOF 2
ENDMDL
MODEL      123
REMARK  Name = ZINC000002245296
REMARK                            x       y       z     vdW  Elec       q    Type
REMARK                         _______ _______ _______ _____ _____    ______ ____
ROOT
ATOM      1  C   LIG    1       -2.975  -1.908  -1.417  0.00  0.00    -0.090 A 
ATOM      2  C   LIG    1       -2.956  -3.290  -1.419  0.00  0.00    +0.010 A 
ATOM      3  C   LIG    1       -4.144  -3.997  -1.411  0.00  0.00    +0.000 A 
ATOM      4  C   LIG    1       -5.350  -3.322  -1.401  0.00  0.00    +0.000 A 
ATOM      5  C   LIG    1       -5.369  -1.940  -1.399  0.00  0.00    +0.000 A 
ATOM      6  C   LIG    1       -4.181  -1.233  -1.402  0.00  0.00    -0.080 A 
ATOM      7  C   LIG    1       -4.202   0.274  -1.399  0.00  0.00    +0.090 C 
ENDROOT
BRANCH   1   8
ATOM      8  C   LIG    1       -1.680  -1.137  -1.425  0.00  0.00    +0.080 C 
BRANCH   8   9
ATOM      9  C   LIG    1       -1.293  -0.775   0.010  0.00  0.00    +0.090 C 
BRANCH   9  11
ATOM     10  C   LIG    1       -0.016   1.307   0.009  0.00  0.00    +0.050 C 
ATOM     11  C   LIG    1        0.002  -0.004   0.002  0.00  0.00    -0.070 C 
ATOM     12 CL   LIG    1        1.517  -0.852  -0.017  0.00  0.00    -0.090 Cl
ENDBRANCH   9  11
ENDBRANCH   8   9
ENDBRANCH   1   8
TORSDOF 3
ENDMDL
MODEL      124
REMARK  Name = ZINC000085650688
REMARK                            x       y       z     vdW  Elec       q    Type
REMARK                         _______ _______ _______ _____ _____    ______ ____
ROOT
ATOM      1  C   LIG    1       -3.376  -2.275  -2.830  0.00  0.00    -0.090 A 
ATOM      2  C   LIG    1       -4.158  -1.410  -3.573  0.00  0.00    +0.040 A 
ATOM      3  C   LIG    1       -4.509  -1.736  -4.870  0.00  0.00    -0.010 A 
ATOM      4  C   LIG    1       -4.077  -2.928  -5.425  0.00  0.00    +0.090 A 
ATOM      5  C   LIG    1       -3.293  -3.793  -4.680  0.00  0.00    -0.010 A 
ATOM      6  F   LIG    1       -4.418  -3.247  -6.693  0.00  0.00    -0.140 F 
ATOM      7  C   LIG    1       -2.940  -3.464  -3.385  0.00  0.00    +0.040 A 
ENDROOT
BRANCH   1   8
ATOM      8  C   LIG    1       -2.995  -1.919  -1.417  0.00  0.00    +0.080 C 
BRANCH   8   9
ATOM      9  C   LIG    1       -1.680  -1.137  -1.425  0.00  0.00    +0.030 C 
BRANCH   9  10
ATOM     10  C   LIG    1       -1.293  -0.775   0.010  0.00  0.00    +0.090 C 
BRANCH  10  12
ATOM     11  C   LIG    1       -0.016   1.307   0.009  0.00  0.00    +0.050 C 
ATOM     12  C   LIG    1        0.002  -0.004   0.002  0.00  0.00    -0.070 C 
ATOM     13 CL   LIG    1        1.517  -0.852  -0.017  0.00  0.00    -0.090 Cl
ENDBRANCH  10  12
ENDBRANCH   9  10
ENDBRANCH   8   9
ENDBRANCH   1   8
TORSDOF 4
ENDMDL
MODEL      125
REMARK  Name = ZINC000085650684
REMARK                            x       y       z     vdW  Elec       q    Type
REMARK                         _______ _______ _______ _____ _____    ______ ____
ROOT
ATOM      1  C   LIG    1       -3.376  -2.275  -2.830  0.00  0.00    -0.050 A 
ATOM      2  C   LIG    1       -4.158  -1.411  -3.574  0.00  0.00    +0.000 A 
ATOM      3  C   LIG    1       -4.509  -1.736  -4.871  0.00  0.00    +0.040 A 
ATOM      4  C   LIG    1       -4.079  -2.926  -5.426  0.00  0.00    -0.020 A 
ATOM      5  C   LIG    1       -3.295  -3.793  -4.683  0.00  0.00    +0.100 A 
ATOM      6  F   LIG    1       -2.874  -4.957  -5.224  0.00  0.00    -0.140 F 
ATOM      7  C   LIG    1       -2.940  -3.464  -3.386  0.00  0.00    -0.020 A 
ENDROOT
BRANCH   1   8
ATOM      8  C   LIG    1       -2.995  -1.919  -1.417  0.00  0.00    +0.080 C 
BRANCH   8   9
ATOM      9  C   LIG    1       -1.680  -1.137  -1.425  0.00  0.00    +0.030 C 
BRANCH   9  10
ATOM     10  C   LIG    1       -1.293  -0.775   0.010  0.00  0.00    +0.090 C 
BRANCH  10  12
ATOM     11  C   LIG    1       -0.016   1.307   0.009  0.00  0.00    +0.050 C 
ATOM     12  C   LIG    1        0.002  -0.004   0.002  0.00  0.00    -0.070 C 
ATOM     13 CL   LIG    1        1.517  -0.852  -0.017  0.00  0.00    -0.090 Cl
ENDBRANCH  10  12
ENDBRANCH   9  10
ENDBRANCH   8   9
ENDBRANCH   1   8
TORSDOF 4
ENDMDL
MODEL      126
REMARK  Name = ZINC000071795123
REMARK                            x       y       z     vdW  Elec       q    Type
REMARK                         _______ _______ _______ _____ _____    ______ ____
ROOT
ATOM      1  C   LIG    1       -2.975  -1.908  -1.417  0.00  0.00    -0.080 A 
ATOM      2  C   LIG    1       -2.958  -3.286  -1.314  0.00  0.00    +0.000 A 
ATOM      3  C   LIG    1       -4.145  -3.994  -1.307  0.00  0.00    -0.080 A 
ATOM      4  C   LIG    1       -5.350  -3.322  -1.401  0.00  0.00    -0.010 A 
ATOM      5  C   LIG    1       -5.367  -1.944  -1.503  0.00  0.00    -0.080 A 
ATOM      6  C   LIG    1       -6.681  -1.212  -1.606  0.00  0.00    +0.090 C 
ATOM      7  C   LIG    1       -4.127  -5.496  -1.196  0.00  0.00    +0.090 C 
ATOM      8  C   LIG    1       -4.180  -1.236  -1.506  0.00  0.00    +0.000 A 
ENDROOT
BRANCH   1   9
ATOM      9  C   LIG    1       -1.680  -1.137  -1.425  0.00  0.00    +0.080 C 
BRANCH   9  10
ATOM     10  C   LIG    1       -1.293  -0.775   0.010  0.00  0.00    +0.090 C 
BRANCH  10  12
ATOM     11  C   LIG    1       -0.016   1.307   0.009  0.00  0.00    +0.050 C 
ATOM     12  C   LIG    1        0.002  -0.004   0.002  0.00  0.00    -0.070 C 
ATOM     13 CL   LIG    1        1.517  -0.852  -0.017  0.00  0.00    -0.090 Cl
ENDBRANCH  10  12
ENDBRANCH   9  10
ENDBRANCH   1   9
TORSDOF 3
ENDMDL
MODEL      127
REMARK  Name = ZINC000071795135
REMARK                            x       y       z     vdW  Elec       q    Type
REMARK                         _______ _______ _______ _____ _____    ______ ____
ROOT
ATOM      1  C   LIG    1       -2.975  -1.908  -1.417  0.00  0.00    -0.120 A 
ATOM      2  C   LIG    1       -2.956  -3.289  -1.419  0.00  0.00    +0.040 A 
ATOM      3  C   LIG    1       -4.144  -3.997  -1.411  0.00  0.00    +0.000 A 
ATOM      4  C   LIG    1       -5.351  -3.324  -1.402  0.00  0.00    +0.040 A 
ATOM      5  C   LIG    1       -5.372  -1.942  -1.401  0.00  0.00    -0.010 A 
ATOM      6  C   LIG    1       -4.184  -1.232  -1.402  0.00  0.00    +0.100 A 
ATOM      7  F   LIG    1       -4.203   0.119  -1.400  0.00  0.00    -0.140 F 
ENDROOT
BRANCH   1   8
ATOM      8  C   LIG    1       -1.680  -1.137  -1.425  0.00  0.00    +0.080 C 
BRANCH   8   9
ATOM      9  C   LIG    1       -1.293  -0.775   0.010  0.00  0.00    +0.090 C 
BRANCH   9  11
ATOM     10  C   LIG    1       -0.016   1.307   0.009  0.00  0.00    +0.060 C 
ATOM     11  C   LIG    1        0.002  -0.004   0.002  0.00  0.00    -0.070 C 
ATOM     12 CL   LIG    1        1.517  -0.852  -0.017  0.00  0.00    -0.090 Cl
ENDBRANCH   9  11
ENDBRANCH   8   9
ENDBRANCH   1   8
TORSDOF 3
ENDMDL
MODEL      128
REMARK  Name = ZINC000071795097
REMARK                            x       y       z     vdW  Elec       q    Type
REMARK                         _______ _______ _______ _____ _____    ______ ____
ROOT
ATOM      1  C   LIG    1       -1.674  -1.131  -1.403  0.00  0.00    -0.090 A 
ATOM      2  C   LIG    1       -2.456  -0.267  -2.147  0.00  0.00    -0.070 A 
ATOM      3  C   LIG    1       -2.806  -0.593  -3.444  0.00  0.00    -0.010 A 
ATOM      4  C   LIG    1       -2.374  -1.784  -3.997  0.00  0.00    +0.010 A 
ATOM      5  C   LIG    1       -1.593  -2.648  -3.254  0.00  0.00    -0.010 A 
ATOM      6  C   LIG    1       -2.926   1.032  -1.544  0.00  0.00    +0.090 C 
ATOM      7  C   LIG    1       -1.238  -2.320  -1.959  0.00  0.00    -0.070 A 
ATOM      8  C   LIG    1       -0.386  -3.262  -1.149  0.00  0.00    +0.100 C 
ENDROOT
BRANCH   1   9
ATOM      9  C   LIG    1       -1.293  -0.775   0.010  0.00  0.00    +0.140 C 
BRANCH   9  11
ATOM     10  C   LIG    1       -0.016   1.307   0.009  0.00  0.00    +0.050 C 
ATOM     11  C   LIG    1        0.002  -0.004   0.002  0.00  0.00    -0.060 C 
ATOM     12 CL   LIG    1        1.517  -0.852  -0.017  0.00  0.00    -0.090 Cl
ENDBRANCH   9  11
ENDBRANCH   1   9
TORSDOF 2
ENDMDL
MODEL      129
REMARK  Name = ZINC000071795105
REMARK                            x       y       z     vdW  Elec       q    Type
REMARK                         _______ _______ _______ _____ _____    ______ ____
ROOT
ATOM      1  C   LIG    1       -2.975  -1.908  -1.417  0.00  0.00    -0.080 A 
ATOM      2  C   LIG    1       -2.956  -3.290  -1.419  0.00  0.00    +0.010 A 
ATOM      3  C   LIG    1       -4.144  -3.997  -1.411  0.00  0.00    -0.090 A 
ATOM      4  C   LIG    1       -5.350  -3.322  -1.401  0.00  0.00    +0.000 A 
ATOM      5  C   LIG    1       -5.369  -1.940  -1.399  0.00  0.00    +0.010 A 
ATOM      6  C   LIG    1       -4.123  -5.504  -1.414  0.00  0.00    +0.090 C 
ATOM      7  C   LIG    1       -4.181  -1.233  -1.402  0.00  0.00    -0.090 A 
ATOM      8  C   LIG    1       -4.202   0.274  -1.399  0.00  0.00    +0.090 C 
ENDROOT
BRANCH   1   9
ATOM      9  C   LIG    1       -1.680  -1.137  -1.425  0.00  0.00    +0.080 C 
BRANCH   9  10
ATOM     10  C   LIG    1       -1.293  -0.775   0.010  0.00  0.00    +0.090 C 
BRANCH  10  12
ATOM     11  C   LIG    1       -0.016   1.307   0.009  0.00  0.00    +0.050 C 
ATOM     12  C   LIG    1        0.002  -0.004   0.002  0.00  0.00    -0.070 C 
ATOM     13 CL   LIG    1        1.517  -0.852  -0.017  0.00  0.00    -0.090 Cl
ENDBRANCH  10  12
ENDBRANCH   9  10
ENDBRANCH   1   9
TORSDOF 3
ENDMDL
MODEL      130
REMARK  Name = ZINC000002567439
REMARK                            x       y       z     vdW  Elec       q    Type
REMARK                         _______ _______ _______ _____ _____    ______ ____
ROOT
ATOM      1  C   LIG    1       -1.680  -1.137  -1.425  0.00  0.00    +0.020 C 
ENDROOT
BRANCH   1   2
ATOM      2  C   LIG    1       -1.293  -0.775   0.010  0.00  0.00    +0.080 C 
BRANCH   2   4
ATOM      3  C   LIG    1       -0.016   1.307   0.009  0.00  0.00    +0.050 C 
ATOM      4  C   LIG    1        0.002  -0.004   0.002  0.00  0.00    -0.070 C 
ATOM      5 CL   LIG    1        1.517  -0.852  -0.017  0.00  0.00    -0.090 Cl
ENDBRANCH   2   4
ENDBRANCH   1   2
BRANCH   1   6
ATOM      6  C   LIG    1       -2.995  -1.919  -1.417  0.00  0.00    +0.000 C 
BRANCH   6   7
ATOM      7  C   LIG    1       -3.382  -2.281  -2.852  0.00  0.00    +0.000 C 
BRANCH   7   8
ATOM      8  C   LIG    1       -4.697  -3.064  -2.844  0.00  0.00    -0.010 C 
ATOM      9  C   LIG    1       -5.084  -3.425  -4.279  0.00  0.00    +0.000 C 
ENDBRANCH   7   8
ENDBRANCH   6   7
ENDBRANCH   1   6
TORSDOF 5
ENDMDL
MODEL      131
REMARK  Name = ZINC000033414752
REMARK                            x       y       z     vdW  Elec       q    Type
REMARK                         _______ _______ _______ _____ _____    ______ ____
ROOT
ATOM      1  C   LIG    1       -2.995  -1.919  -1.417  0.00  0.00    +0.000 C 
ENDROOT
BRANCH   1   2
ATOM      2  C   LIG    1       -1.680  -1.137  -1.425  0.00  0.00    +0.020 C 
BRANCH   2   3
ATOM      3  C   LIG    1       -1.293  -0.775   0.010  0.00  0.00    +0.080 C 
BRANCH   3   5
ATOM      4  C   LIG    1       -0.016   1.307   0.009  0.00  0.00    +0.050 C 
ATOM      5  C   LIG    1        0.002  -0.004   0.002  0.00  0.00    -0.070 C 
ATOM      6 CL   LIG    1        1.517  -0.852  -0.017  0.00  0.00    -0.090 Cl
ENDBRANCH   3   5
ENDBRANCH   2   3
ENDBRANCH   1   2
BRANCH   1   7
ATOM      7  C   LIG    1       -3.382  -2.281  -2.852  0.00  0.00    +0.000 C 
BRANCH   7   8
ATOM      8  C   LIG    1       -4.697  -3.064  -2.844  0.00  0.00    +0.020 C 
BRANCH   8   9
ATOM      9  C   LIG    1       -5.084  -3.425  -4.279  0.00  0.00    +0.020 C 
BRANCH   9  10
ATOM     10  C   LIG    1       -6.399  -4.208  -4.271  0.00  0.00    +0.190 C 
BRANCH  10  11
ATOM     11  C   LIG    1       -6.771  -4.556  -5.652  0.00  0.00    +0.200 C 
ATOM     12  N   LIG    1       -7.059  -4.824  -6.717  0.00  0.00    -0.440 NA
ENDBRANCH  10  11
ENDBRANCH   9  10
ENDBRANCH   8   9
ENDBRANCH   7   8
ENDBRANCH   1   7
TORSDOF 8
ENDMDL
MODEL      132
REMARK  Name = ZINC000095736258
REMARK                            x       y       z     vdW  Elec       q    Type
REMARK                         _______ _______ _______ _____ _____    ______ ____
ROOT
ATOM      1  C   LIG    1       -2.827  -4.123   0.007  0.00  0.00    +0.000 C 
ENDROOT
BRANCH   1   2
ATOM      2  C   LIG    1       -2.848  -2.593   0.015  0.00  0.00    +0.000 C 
BRANCH   2   3
ATOM      3  C   LIG    1       -1.413  -2.063   0.004  0.00  0.00    +0.000 C 
BRANCH   3   4
ATOM      4  C   LIG    1       -1.433  -0.534   0.013  0.00  0.00    +0.000 C 
BRANCH   4   6
ATOM      5  C   LIG    1       -0.019   1.526   0.010  0.00  0.00    +0.000 C 
ATOM      6  C   LIG    1        0.002  -0.004   0.002  0.00  0.00    -0.010 C 
ENDBRANCH   4   6
ENDBRANCH   3   4
ENDBRANCH   2   3
ENDBRANCH   1   2
BRANCH   1   7
ATOM      7  C   LIG    1       -4.263  -4.652   0.018  0.00  0.00    +0.000 C 
BRANCH   7   8
ATOM      8  C   LIG    1       -4.242  -6.182   0.009  0.00  0.00    +0.050 C 
BRANCH   8   9
ATOM      9  C   LIG    1       -5.677  -6.712   0.020  0.00  0.00    +0.090 C 
BRANCH   9  10
ATOM     10  S   LIG    1       -5.653  -8.526   0.010  0.00  0.00    -0.250 S 
ATOM     11  H   LIG    1       -6.959  -8.846   0.021  0.00  0.00    +0.090 HD
ENDBRANCH   9  10
ENDBRANCH   8   9
ENDBRANCH   7   8
ENDBRANCH   1   7
TORSDOF 8
ENDMDL
MODEL      133
REMARK  Name = ZINC000071795163
REMARK                            x       y       z     vdW  Elec       q    Type
REMARK                         _______ _______ _______ _____ _____    ______ ____
ROOT
ATOM      1  C   LIG    1       -2.975  -1.908  -1.417  0.00  0.00    -0.100 A 
ATOM      2  C   LIG    1       -2.957  -3.286  -1.314  0.00  0.00    +0.040 A 
ATOM      3  C   LIG    1       -4.144  -3.994  -1.307  0.00  0.00    -0.010 A 
ATOM      4  C   LIG    1       -5.351  -3.323  -1.401  0.00  0.00    +0.090 A 
ATOM      5  C   LIG    1       -5.367  -1.942  -1.504  0.00  0.00    -0.010 A 
ATOM      6  F   LIG    1       -6.511  -4.014  -1.393  0.00  0.00    -0.140 F 
ATOM      7  C   LIG    1       -4.180  -1.236  -1.506  0.00  0.00    +0.040 A 
ENDROOT
BRANCH   1   8
ATOM      8  C   LIG    1       -1.680  -1.137  -1.425  0.00  0.00    +0.080 C 
BRANCH   8   9
ATOM      9  C   LIG    1       -1.293  -0.775   0.010  0.00  0.00    +0.090 C 
BRANCH   9  11
ATOM     10  C   LIG    1       -0.016   1.307   0.009  0.00  0.00    +0.060 C 
ATOM     11  C   LIG    1        0.002  -0.004   0.002  0.00  0.00    -0.070 C 
ATOM     12 CL   LIG    1        1.517  -0.852  -0.017  0.00  0.00    -0.090 Cl
ENDBRANCH   9  11
ENDBRANCH   8   9
ENDBRANCH   1   8
TORSDOF 3
ENDMDL
MODEL      134
REMARK  Name = ZINC000071795121
REMARK                            x       y       z     vdW  Elec       q    Type
REMARK                         _______ _______ _______ _____ _____    ______ ____
ROOT
ATOM      1  C   LIG    1       -1.674  -1.131  -1.403  0.00  0.00    -0.080 A 
ATOM      2  C   LIG    1       -2.456  -0.267  -2.147  0.00  0.00    +0.000 A 
ATOM      3  C   LIG    1       -2.806  -0.593  -3.444  0.00  0.00    -0.080 A 
ATOM      4  C   LIG    1       -2.374  -1.784  -3.998  0.00  0.00    +0.000 A 
ATOM      5  C   LIG    1       -1.592  -2.648  -3.254  0.00  0.00    -0.080 A 
ATOM      6  C   LIG    1       -1.121  -3.946  -3.858  0.00  0.00    +0.090 C 
ATOM      7  C   LIG    1       -3.659   0.349  -4.254  0.00  0.00    +0.090 C 
ATOM      8  C   LIG    1       -1.238  -2.320  -1.959  0.00  0.00    +0.010 A 
ENDROOT
BRANCH   1   9
ATOM      9  C   LIG    1       -1.293  -0.775   0.010  0.00  0.00    +0.140 C 
BRANCH   9  11
ATOM     10  C   LIG    1       -0.016   1.307   0.009  0.00  0.00    +0.060 C 
ATOM     11  C   LIG    1        0.002  -0.004   0.002  0.00  0.00    -0.060 C 
ATOM     12 CL   LIG    1        1.517  -0.852  -0.017  0.00  0.00    -0.090 Cl
ENDBRANCH   9  11
ENDBRANCH   1   9
TORSDOF 2
ENDMDL
MODEL      135
REMARK  Name = ZINC000071795056
REMARK                            x       y       z     vdW  Elec       q    Type
REMARK                         _______ _______ _______ _____ _____    ______ ____
ROOT
ATOM      1  C   LIG    1       -2.975  -1.908  -1.417  0.00  0.00    -0.090 A 
ATOM      2  C   LIG    1       -2.956  -3.290  -1.419  0.00  0.00    +0.010 A 
ATOM      3  C   LIG    1       -4.144  -3.997  -1.411  0.00  0.00    +0.000 A 
ATOM      4  C   LIG    1       -5.350  -3.322  -1.401  0.00  0.00    -0.080 A 
ATOM      5  C   LIG    1       -5.369  -1.940  -1.398  0.00  0.00    +0.000 A 
ATOM      6  C   LIG    1       -6.645  -4.094  -1.394  0.00  0.00    +0.090 C 
ATOM      7  C   LIG    1       -4.181  -1.233  -1.402  0.00  0.00    -0.080 A 
ATOM      8  C   LIG    1       -4.202   0.274  -1.398  0.00  0.00    +0.090 C 
ENDROOT
BRANCH   1   9
ATOM      9  C   LIG    1       -1.680  -1.137  -1.425  0.00  0.00    +0.080 C 
BRANCH   9  10
ATOM     10  C   LIG    1       -1.293  -0.775   0.010  0.00  0.00    +0.090 C 
BRANCH  10  12
ATOM     11  C   LIG    1       -0.016   1.307   0.009  0.00  0.00    +0.050 C 
ATOM     12  C   LIG    1        0.002  -0.004   0.002  0.00  0.00    -0.070 C 
ATOM     13 CL   LIG    1        1.517  -0.852  -0.017  0.00  0.00    -0.090 Cl
ENDBRANCH  10  12
ENDBRANCH   9  10
ENDBRANCH   1   9
TORSDOF 3
ENDMDL
MODEL      136
REMARK  Name = ZINC000071795085
REMARK                            x       y       z     vdW  Elec       q    Type
REMARK                         _______ _______ _______ _____ _____    ______ ____
ROOT
ATOM      1  C   LIG    1       -1.674  -1.131  -1.403  0.00  0.00    -0.080 A 
ATOM      2  C   LIG    1       -2.539  -0.318  -2.111  0.00  0.00    +0.010 A 
ATOM      3  C   LIG    1       -2.890  -0.644  -3.408  0.00  0.00    -0.090 A 
ATOM      4  C   LIG    1       -2.374  -1.784  -3.998  0.00  0.00    +0.000 A 
ATOM      5  C   LIG    1       -1.508  -2.596  -3.290  0.00  0.00    +0.000 A 
ATOM      6  C   LIG    1       -3.833   0.242  -4.180  0.00  0.00    +0.090 C 
ATOM      7  C   LIG    1       -1.155  -2.268  -1.995  0.00  0.00    -0.080 A 
ATOM      8  C   LIG    1       -0.211  -3.154  -1.223  0.00  0.00    +0.090 C 
ENDROOT
BRANCH   1   9
ATOM      9  C   LIG    1       -1.293  -0.775   0.010  0.00  0.00    +0.130 C 
BRANCH   9  11
ATOM     10  C   LIG    1       -0.016   1.307   0.009  0.00  0.00    +0.060 C 
ATOM     11  C   LIG    1        0.002  -0.004   0.002  0.00  0.00    -0.060 C 
ATOM     12 CL   LIG    1        1.517  -0.852  -0.017  0.00  0.00    -0.080 Cl
ENDBRANCH   9  11
ENDBRANCH   1   9
TORSDOF 2
ENDMDL
MODEL      137
REMARK  Name = ZINC000071785191
REMARK                            x       y       z     vdW  Elec       q    Type
REMARK                         _______ _______ _______ _____ _____    ______ ____
ROOT
ATOM      1  C   LIG    1        0.026   1.237   0.468  0.00  0.00    +0.020 C 
ATOM      2  C   LIG    1        0.002  -0.004   0.002  0.00  0.00    -0.080 C 
ENDROOT
BRANCH   2   3
ATOM      3  C   LIG    1       -1.291  -0.683  -0.225  0.00  0.00    -0.040 A 
ATOM      4  C   LIG    1       -1.703  -1.709   0.626  0.00  0.00    +0.020 A 
ATOM      5  C   LIG    1       -2.911  -2.338   0.409  0.00  0.00    +0.000 A 
ATOM      6  C   LIG    1       -3.713  -1.955  -0.652  0.00  0.00    +0.000 A 
ATOM      7  C   LIG    1       -3.310  -0.940  -1.500  0.00  0.00    +0.000 A 
ATOM      8  C   LIG    1       -2.107  -0.297  -1.289  0.00  0.00    +0.010 A 
ENDBRANCH   2   3
BRANCH   2   9
ATOM      9  C   LIG    1        1.293  -0.722  -0.296  0.00  0.00    +0.030 C 
ATOM     10  C   LIG    1        1.421  -1.993   0.580  0.00  0.00    +0.020 C 
ATOM     11  C   LIG    1        2.398  -2.874  -0.237  0.00  0.00    +0.010 C 
ATOM     12  C   LIG    1        1.993  -2.627  -1.705  0.00  0.00    +0.000 C 
ATOM     13  C   LIG    1        1.290  -1.259  -1.743  0.00  0.00    +0.010 C 
ENDBRANCH   2   9
TORSDOF 2
ENDMDL
MODEL      138
REMARK  Name = ZINC000043209537
REMARK                            x       y       z     vdW  Elec       q    Type
REMARK                         _______ _______ _______ _____ _____    ______ ____
ROOT
ATOM      1  C   LIG    1       -1.674  -1.131  -1.403  0.00  0.00    -0.170 A 
ATOM      2  C   LIG    1       -1.317  -2.248  -2.038  0.00  0.00    +0.030 A 
ATOM      3  C   LIG    1       -1.787  -2.358  -3.336  0.00  0.00    +0.030 A 
ATOM      4  C   LIG    1       -2.527  -1.329  -3.754  0.00  0.00    -0.150 A 
ATOM      5 CL   LIG    1       -3.249  -1.190  -5.327  0.00  0.00    -0.010 Cl
ATOM      6  S   LIG    1       -2.666  -0.140  -2.466  0.00  0.00    +0.150 S 
ENDROOT
BRANCH   1   7
ATOM      7  C   LIG    1       -1.293  -0.775   0.010  0.00  0.00    +0.190 C 
BRANCH   7   9
ATOM      8  C   LIG    1       -0.016   1.307   0.009  0.00  0.00    +0.070 C 
ATOM      9  C   LIG    1        0.002  -0.004   0.002  0.00  0.00    -0.070 C 
ATOM     10 CL   LIG    1        1.517  -0.852  -0.017  0.00  0.00    -0.080 Cl
ENDBRANCH   7   9
ENDBRANCH   1   7
TORSDOF 2
ENDMDL
MODEL      139
REMARK  Name = ZINC000002567466
REMARK                            x       y       z     vdW  Elec       q    Type
REMARK                         _______ _______ _______ _____ _____    ______ ____
ROOT
ATOM      1  C   LIG    1       -1.674  -1.131  -1.403  0.00  0.00    -0.070 A 
ATOM      2  C   LIG    1       -2.456  -0.267  -2.147  0.00  0.00    +0.020 A 
ATOM      3  C   LIG    1       -2.806  -0.592  -3.444  0.00  0.00    +0.030 A 
ATOM      4  C   LIG    1       -2.375  -1.782  -3.998  0.00  0.00    +0.020 A 
ATOM      5  C   LIG    1       -1.593  -2.648  -3.255  0.00  0.00    -0.030 A 
ATOM      6 CL   LIG    1       -1.051  -4.144  -3.950  0.00  0.00    -0.070 Cl
ATOM      7  C   LIG    1       -1.238  -2.320  -1.959  0.00  0.00    +0.030 A 
ENDROOT
BRANCH   1   8
ATOM      8  C   LIG    1       -1.293  -0.775   0.010  0.00  0.00    +0.150 C 
BRANCH   8  10
ATOM      9  C   LIG    1       -0.016   1.307   0.009  0.00  0.00    +0.060 C 
ATOM     10  C   LIG    1        0.002  -0.004   0.002  0.00  0.00    -0.070 C 
ATOM     11 CL   LIG    1        1.517  -0.852  -0.017  0.00  0.00    -0.080 Cl
ENDBRANCH   8  10
ENDBRANCH   1   8
TORSDOF 2
ENDMDL
MODEL      140
REMARK  Name = ZINC000043208732
REMARK                            x       y       z     vdW  Elec       q    Type
REMARK                         _______ _______ _______ _____ _____    ______ ____
ROOT
ATOM      1  C   LIG    1       -1.674  -1.131  -1.403  0.00  0.00    -0.070 A 
ATOM      2  C   LIG    1       -2.538  -0.320  -2.111  0.00  0.00    +0.040 A 
ATOM      3  C   LIG    1       -2.890  -0.646  -3.409  0.00  0.00    +0.010 A 
ATOM      4  C   LIG    1       -2.377  -1.785  -4.002  0.00  0.00    +0.030 A 
ATOM      5  C   LIG    1       -1.512  -2.601  -3.300  0.00  0.00    -0.010 A 
ATOM      6  C   LIG    1       -1.152  -2.274  -1.999  0.00  0.00    -0.080 A 
ENDROOT
BRANCH   6   7
ATOM      7  S   LIG    1       -0.049  -3.312  -1.099  0.00  0.00    -0.090 S 
ATOM      8  C   LIG    1        0.319  -4.637  -2.282  0.00  0.00    +0.110 C 
ENDBRANCH   6   7
BRANCH   1   9
ATOM      9  C   LIG    1       -1.293  -0.775   0.010  0.00  0.00    +0.140 C 
BRANCH   9  11
ATOM     10  C   LIG    1       -0.016   1.307   0.009  0.00  0.00    +0.050 C 
ATOM     11  C   LIG    1        0.002  -0.004   0.002  0.00  0.00    -0.060 C 
ATOM     12 CL   LIG    1        1.517  -0.852  -0.017  0.00  0.00    -0.070 Cl
ENDBRANCH   9  11
ENDBRANCH   1   9
TORSDOF 3
ENDMDL
MODEL      141
REMARK  Name = ZINC000002567467
REMARK                            x       y       z     vdW  Elec       q    Type
REMARK                         _______ _______ _______ _____ _____    ______ ____
ROOT
ATOM      1  C   LIG    1       -1.674  -1.131  -1.403  0.00  0.00    -0.080 A 
ATOM      2  C   LIG    1       -2.456  -0.266  -2.147  0.00  0.00    +0.030 A 
ATOM      3  C   LIG    1       -2.806  -0.592  -3.443  0.00  0.00    +0.020 A 
ATOM      4  C   LIG    1       -2.375  -1.784  -3.998  0.00  0.00    -0.030 A 
ATOM      5  C   LIG    1       -1.593  -2.649  -3.253  0.00  0.00    +0.030 A 
ATOM      6 CL   LIG    1       -2.814  -2.194  -5.626  0.00  0.00    -0.070 Cl
ATOM      7  C   LIG    1       -1.238  -2.320  -1.959  0.00  0.00    +0.030 A 
ENDROOT
BRANCH   1   8
ATOM      8  C   LIG    1       -1.293  -0.775   0.010  0.00  0.00    +0.150 C 
BRANCH   8  10
ATOM      9  C   LIG    1       -0.016   1.307   0.009  0.00  0.00    +0.060 C 
ATOM     10  C   LIG    1        0.002  -0.004   0.002  0.00  0.00    -0.070 C 
ATOM     11 CL   LIG    1        1.517  -0.852  -0.017  0.00  0.00    -0.080 Cl
ENDBRANCH   8  10
ENDBRANCH   1   8
TORSDOF 2
ENDMDL
MODEL      142
REMARK  Name = ZINC000071795059
REMARK                            x       y       z     vdW  Elec       q    Type
REMARK                         _______ _______ _______ _____ _____    ______ ____
ROOT
ATOM      1  C   LIG    1       -1.674  -1.131  -1.403  0.00  0.00    -0.090 A 
ATOM      2  C   LIG    1       -2.539  -0.318  -2.111  0.00  0.00    +0.020 A 
ATOM      3  C   LIG    1       -2.890  -0.644  -3.408  0.00  0.00    -0.010 A 
ATOM      4  C   LIG    1       -2.374  -1.784  -3.997  0.00  0.00    -0.080 A 
ATOM      5  C   LIG    1       -1.508  -2.596  -3.290  0.00  0.00    +0.000 A 
ATOM      6  C   LIG    1       -2.756  -2.140  -5.411  0.00  0.00    +0.090 C 
ATOM      7  C   LIG    1       -1.155  -2.268  -1.995  0.00  0.00    -0.070 A 
ATOM      8  C   LIG    1       -0.210  -3.154  -1.224  0.00  0.00    +0.090 C 
ENDROOT
BRANCH   1   9
ATOM      9  C   LIG    1       -1.293  -0.775   0.010  0.00  0.00    +0.130 C 
BRANCH   9  11
ATOM     10  C   LIG    1       -0.016   1.307   0.009  0.00  0.00    +0.050 C 
ATOM     11  C   LIG    1        0.002  -0.004   0.002  0.00  0.00    -0.060 C 
ATOM     12 CL   LIG    1        1.517  -0.852  -0.017  0.00  0.00    -0.080 Cl
ENDBRANCH   9  11
ENDBRANCH   1   9
TORSDOF 2
ENDMDL
MODEL      143
REMARK  Name = ZINC000085650726
REMARK                            x       y       z     vdW  Elec       q    Type
REMARK                         _______ _______ _______ _____ _____    ______ ____
ROOT
ATOM      1  C   LIG    1       -1.797  -1.062  -1.385  0.00  0.00    -0.080 A 
ATOM      2  C   LIG    1       -2.609  -0.145  -2.026  0.00  0.00    +0.010 A 
ATOM      3  C   LIG    1       -2.957  -0.336  -3.350  0.00  0.00    +0.000 A 
ATOM      4  C   LIG    1       -2.493  -1.444  -4.033  0.00  0.00    +0.000 A 
ATOM      5  C   LIG    1       -1.680  -2.361  -3.393  0.00  0.00    +0.000 A 
ATOM      6  C   LIG    1       -1.329  -2.167  -2.070  0.00  0.00    -0.070 A 
ENDROOT
BRANCH   6   7
ATOM      7  C   LIG    1       -0.443  -3.167  -1.371  0.00  0.00    +0.060 C 
ATOM      8  C   LIG    1       -1.310  -4.195  -0.643  0.00  0.00    +0.030 C 
ENDBRANCH   6   7
BRANCH   1   9
ATOM      9  C   LIG    1       -1.418  -0.853   0.058  0.00  0.00    +0.130 C 
BRANCH   9  11
ATOM     10  C   LIG    1       -0.175   1.248   0.175  0.00  0.00    +0.060 C 
ATOM     11  C   LIG    1       -0.136  -0.063   0.132  0.00  0.00    -0.070 C 
ATOM     12 CL   LIG    1        1.391  -0.887   0.159  0.00  0.00    -0.080 Cl
ENDBRANCH   9  11
ENDBRANCH   1   9
TORSDOF 3
ENDMDL
MODEL      144
REMARK  Name = ZINC000071795054
REMARK                            x       y       z     vdW  Elec       q    Type
REMARK                         _______ _______ _______ _____ _____    ______ ____
ROOT
ATOM      1  C   LIG    1       -1.674  -1.131  -1.403  0.00  0.00    -0.090 A 
ATOM      2  C   LIG    1       -2.456  -0.267  -2.147  0.00  0.00    +0.010 A 
ATOM      3  C   LIG    1       -2.806  -0.593  -3.444  0.00  0.00    +0.000 A 
ATOM      4  C   LIG    1       -2.374  -1.784  -3.997  0.00  0.00    -0.080 A 
ATOM      5  C   LIG    1       -1.591  -2.648  -3.254  0.00  0.00    +0.000 A 
ATOM      6  C   LIG    1       -1.238  -2.320  -1.959  0.00  0.00    +0.020 A 
ENDROOT
BRANCH   1   7
ATOM      7  C   LIG    1       -1.293  -0.775   0.010  0.00  0.00    +0.140 C 
BRANCH   7   9
ATOM      8  C   LIG    1       -0.016   1.307   0.009  0.00  0.00    +0.060 C 
ATOM      9  C   LIG    1        0.002  -0.004   0.002  0.00  0.00    -0.070 C 
ATOM     10 CL   LIG    1        1.517  -0.852  -0.017  0.00  0.00    -0.090 Cl
ENDBRANCH   7   9
ENDBRANCH   1   7
BRANCH   4  11
ATOM     11  C   LIG    1       -2.756  -2.140  -5.411  0.00  0.00    +0.060 C 
BRANCH  11  12
ATOM     12  C   LIG    1       -1.698  -1.603  -6.376  0.00  0.00    +0.000 C 
ATOM     13  C   LIG    1       -2.086  -1.965  -7.811  0.00  0.00    +0.010 C 
ENDBRANCH  11  12
ENDBRANCH   4  11
TORSDOF 4
ENDMDL
MODEL      145
REMARK  Name = ZINC000085650729
REMARK                            x       y       z     vdW  Elec       q    Type
REMARK                         _______ _______ _______ _____ _____    ______ ____
ROOT
ATOM      1  C   LIG    1       -1.674  -1.131  -1.403  0.00  0.00    -0.090 A 
ATOM      2  C   LIG    1       -2.456  -0.267  -2.147  0.00  0.00    +0.010 A 
ATOM      3  C   LIG    1       -2.806  -0.593  -3.444  0.00  0.00    +0.000 A 
ATOM      4  C   LIG    1       -2.374  -1.784  -3.997  0.00  0.00    -0.080 A 
ATOM      5  C   LIG    1       -1.591  -2.648  -3.254  0.00  0.00    +0.000 A 
ATOM      6  C   LIG    1       -1.238  -2.320  -1.959  0.00  0.00    +0.020 A 
ENDROOT
BRANCH   4   7
ATOM      7  C   LIG    1       -2.756  -2.140  -5.411  0.00  0.00    +0.050 C 
ATOM      8  C   LIG    1       -1.698  -1.603  -6.376  0.00  0.00    +0.030 C 
ENDBRANCH   4   7
BRANCH   1   9
ATOM      9  C   LIG    1       -1.293  -0.775   0.010  0.00  0.00    +0.140 C 
BRANCH   9  11
ATOM     10  C   LIG    1       -0.016   1.307   0.009  0.00  0.00    +0.060 C 
ATOM     11  C   LIG    1        0.002  -0.004   0.002  0.00  0.00    -0.070 C 
ATOM     12 CL   LIG    1        1.517  -0.852  -0.017  0.00  0.00    -0.090 Cl
ENDBRANCH   9  11
ENDBRANCH   1   9
TORSDOF 3
ENDMDL
MODEL      146
REMARK  Name = ZINC000071795072
REMARK                            x       y       z     vdW  Elec       q    Type
REMARK                         _______ _______ _______ _____ _____    ______ ____
ROOT
ATOM      1  C   LIG    1       -1.674  -1.131  -1.403  0.00  0.00    -0.080 A 
ATOM      2  C   LIG    1       -2.539  -0.318  -2.111  0.00  0.00    +0.010 A 
ATOM      3  C   LIG    1       -2.890  -0.644  -3.408  0.00  0.00    +0.000 A 
ATOM      4  C   LIG    1       -2.374  -1.784  -3.997  0.00  0.00    +0.000 A 
ATOM      5  C   LIG    1       -1.508  -2.596  -3.290  0.00  0.00    -0.090 A 
ATOM      6  C   LIG    1       -0.947  -3.839  -3.932  0.00  0.00    +0.090 C 
ATOM      7  C   LIG    1       -1.155  -2.268  -1.995  0.00  0.00    -0.070 A 
ATOM      8  C   LIG    1       -0.211  -3.154  -1.223  0.00  0.00    +0.090 C 
ENDROOT
BRANCH   1   9
ATOM      9  C   LIG    1       -1.293  -0.775   0.010  0.00  0.00    +0.130 C 
BRANCH   9  11
ATOM     10  C   LIG    1       -0.016   1.307   0.009  0.00  0.00    +0.060 C 
ATOM     11  C   LIG    1        0.002  -0.004   0.002  0.00  0.00    -0.060 C 
ATOM     12 CL   LIG    1        1.517  -0.852  -0.017  0.00  0.00    -0.080 Cl
ENDBRANCH   9  11
ENDBRANCH   1   9
TORSDOF 2
ENDMDL
MODEL      147
REMARK  Name = ZINC000002567465
REMARK                            x       y       z     vdW  Elec       q    Type
REMARK                         _______ _______ _______ _____ _____    ______ ____
ROOT
ATOM      1  C   LIG    1       -1.674  -1.131  -1.403  0.00  0.00    -0.080 A 
ATOM      2  C   LIG    1       -2.539  -0.318  -2.111  0.00  0.00    +0.030 A 
ATOM      3  C   LIG    1       -2.890  -0.645  -3.408  0.00  0.00    +0.020 A 
ATOM      4  C   LIG    1       -2.375  -1.784  -3.998  0.00  0.00    +0.020 A 
ATOM      5  C   LIG    1       -1.510  -2.598  -3.291  0.00  0.00    +0.020 A 
ATOM      6  C   LIG    1       -1.154  -2.269  -1.995  0.00  0.00    -0.030 A 
ATOM      7 CL   LIG    1       -0.068  -3.290  -1.107  0.00  0.00    -0.060 Cl
ENDROOT
BRANCH   1   8
ATOM      8  C   LIG    1       -1.293  -0.775   0.010  0.00  0.00    +0.150 C 
BRANCH   8  10
ATOM      9  C   LIG    1       -0.016   1.307   0.009  0.00  0.00    +0.060 C 
ATOM     10  C   LIG    1        0.002  -0.004   0.002  0.00  0.00    -0.070 C 
ATOM     11 CL   LIG    1        1.517  -0.852  -0.017  0.00  0.00    -0.080 Cl
ENDBRANCH   8  10
ENDBRANCH   1   8
TORSDOF 2
ENDMDL
MODEL      148
REMARK  Name = ZINC000043208735
REMARK                            x       y       z     vdW  Elec       q    Type
REMARK                         _______ _______ _______ _____ _____    ______ ____
ROOT
ATOM      1  C   LIG    1       -1.674  -1.131  -1.403  0.00  0.00    -0.090 A 
ATOM      2  C   LIG    1       -2.456  -0.265  -2.146  0.00  0.00    +0.040 A 
ATOM      3  C   LIG    1       -2.808  -0.587  -3.442  0.00  0.00    +0.030 A 
ATOM      4  C   LIG    1       -2.374  -1.784  -4.000  0.00  0.00    -0.080 A 
ATOM      5  C   LIG    1       -1.589  -2.652  -3.251  0.00  0.00    +0.000 A 
ATOM      6  C   LIG    1       -1.237  -2.321  -1.958  0.00  0.00    +0.040 A 
ENDROOT
BRANCH   4   7
ATOM      7  S   LIG    1       -2.820  -2.200  -5.653  0.00  0.00    -0.120 S 
ATOM      8  C   LIG    1       -2.028  -3.813  -5.896  0.00  0.00    +0.130 C 
ENDBRANCH   4   7
BRANCH   1   9
ATOM      9  C   LIG    1       -1.293  -0.775   0.010  0.00  0.00    +0.150 C 
BRANCH   9  11
ATOM     10  C   LIG    1       -0.016   1.307   0.009  0.00  0.00    +0.060 C 
ATOM     11  C   LIG    1        0.002  -0.004   0.002  0.00  0.00    -0.070 C 
ATOM     12 CL   LIG    1        1.517  -0.852  -0.017  0.00  0.00    -0.090 Cl
ENDBRANCH   9  11
ENDBRANCH   1   9
TORSDOF 3
ENDMDL
MODEL      149
REMARK  Name = ZINC000080211530
REMARK                            x       y       z     vdW  Elec       q    Type
REMARK                         _______ _______ _______ _____ _____    ______ ____
ROOT
ATOM      1  C   LIG    1        0.066  -2.821  -0.114  0.00  0.00    +0.040 C 
ENDROOT
BRANCH   1   3
ATOM      2  C   LIG    1       -1.266  -0.766   0.089  0.00  0.00    -0.030 C 
ATOM      3  C   LIG    1       -1.247  -2.081  -0.098  0.00  0.00    -0.030 C 
BRANCH   2   5
ATOM      4  C   LIG    1       -0.024   1.313   0.236  0.00  0.00    +0.020 C 
ATOM      5  C   LIG    1       -0.003  -0.013   0.144  0.00  0.00    -0.020 C 
ENDBRANCH   2   5
ENDBRANCH   1   3
BRANCH   1   6
ATOM      6  C   LIG    1        0.019  -3.966   0.900  0.00  0.00    +0.010 C 
BRANCH   6   7
ATOM      7  C   LIG    1        1.352  -4.717   0.883  0.00  0.00    +0.000 C 
BRANCH   7   8
ATOM      8  C   LIG    1        1.305  -5.861   1.897  0.00  0.00    +0.000 C 
BRANCH   8   9
ATOM      9  C   LIG    1        2.638  -6.613   1.881  0.00  0.00    -0.010 C 
ATOM     10  C   LIG    1        2.591  -7.757   2.895  0.00  0.00    +0.000 C 
ENDBRANCH   8   9
ENDBRANCH   7   8
ENDBRANCH   6   7
ENDBRANCH   1   6
TORSDOF 6
ENDMDL
MODEL      150
REMARK  Name = ZINC000071785388
REMARK                            x       y       z     vdW  Elec       q    Type
REMARK                         _______ _______ _______ _____ _____    ______ ____
ROOT
ATOM      1  C   LIG    1       -0.016   1.308   0.009  0.00  0.00    +0.000 C 
ATOM      2  C   LIG    1        0.002  -0.004   0.002  0.00  0.00    -0.060 C 
ATOM      3  C   LIG    1       -1.278  -0.810   0.026  0.00  0.00    +0.070 C 
ATOM      4  C   LIG    1       -1.474  -1.628  -1.244  0.00  0.00    -0.020 C 
ATOM      5  C   LIG    1       -0.585  -2.830  -1.342  0.00  0.00    -0.040 C 
ATOM      6  C   LIG    1        0.728  -2.793  -1.379  0.00  0.00    +0.010 C 
ATOM      7  C   LIG    1        1.452  -1.542  -1.326  0.00  0.00    -0.090 C 
ATOM      8  C   LIG    1        2.545  -0.747  -0.777  0.00  0.00    +0.130 C 
ATOM      9  C   LIG    1       -1.327  -0.739  -2.478  0.00  0.00    +0.030 C 
ATOM     10  C   LIG    1       -2.933  -2.140  -1.232  0.00  0.00    +0.030 C 
ATOM     11  C   LIG    1        1.283  -0.745  -0.014  0.00  0.00    -0.120 C 
ATOM     12  C   LIG    1        1.445  -1.528   1.293  0.00  0.00    +0.060 C 
ENDROOT
TORSDOF 0
ENDMDL
MODEL      151
REMARK  Name = ZINC000003121802
REMARK                            x       y       z     vdW  Elec       q    Type
REMARK                         _______ _______ _______ _____ _____    ______ ____
ROOT
ATOM      1  C   LIG    1       -1.476   0.519   0.086  0.00  0.00    +0.050 C 
ATOM      2  C   LIG    1       -0.817  -0.630  -0.010  0.00  0.00    -0.080 C 
ATOM      3  C   LIG    1       -1.511  -1.870  -0.395  0.00  0.00    -0.100 C 
ATOM      4  C   LIG    1       -0.860  -2.958  -0.754  0.00  0.00    -0.100 C 
ATOM      5  C   LIG    1        0.638  -3.058  -0.792  0.00  0.00    -0.070 C 
ATOM      6  C   LIG    1        1.252  -1.679  -0.731  0.00  0.00    +0.380 C 
ATOM      7  O   LIG    1        2.168  -1.367  -1.453  0.00  0.00    -0.440 OA
ATOM      8  C   LIG    1        1.069  -3.745  -2.089  0.00  0.00    +0.060 C 
ATOM      9  C   LIG    1        1.122  -3.882   0.403  0.00  0.00    +0.060 C 
ATOM     10  C   LIG    1       -1.663  -4.170  -1.151  0.00  0.00    +0.080 C 
ATOM     11  C   LIG    1       -3.018  -1.896  -0.378  0.00  0.00    +0.090 C 
ATOM     12  C   LIG    1        0.672  -0.699   0.268  0.00  0.00    -0.070 C 
ATOM     13  C   LIG    1        0.908  -1.201   1.694  0.00  0.00    +0.060 C 
ATOM     14  C   LIG    1        1.310   0.680   0.083  0.00  0.00    +0.060 C 
ENDROOT
TORSDOF 0
ENDMDL
MODEL      152
REMARK  Name = ZINC000071785382
REMARK                            x       y       z     vdW  Elec       q    Type
REMARK                         _______ _______ _______ _____ _____    ______ ____
ROOT
ATOM      1  C   LIG    1        0.451   1.088   0.259  0.00  0.00    +0.010 C 
ATOM      2  C   LIG    1        0.367  -0.205   0.065  0.00  0.00    -0.110 C 
ATOM      3  C   LIG    1       -0.862  -1.092   0.234  0.00  0.00    +0.060 C 
ATOM      4  C   LIG    1       -0.738  -2.085  -0.948  0.00  0.00    -0.060 C 
ATOM      5  C   LIG    1        0.778  -2.361  -1.041  0.00  0.00    +0.000 C 
ATOM      6  C   LIG    1        1.111  -3.599  -0.184  0.00  0.00    +0.010 C 
ATOM      7  C   LIG    1        2.417  -3.213   0.554  0.00  0.00    +0.010 C 
ATOM      8  C   LIG    1        2.193  -1.716   0.883  0.00  0.00    +0.020 C 
ATOM      9  C   LIG    1       -1.250  -1.447  -2.241  0.00  0.00    +0.020 C 
ATOM     10  C   LIG    1       -1.501  -3.376  -0.648  0.00  0.00    +0.030 C 
ATOM     11  C   LIG    1        1.469  -1.147  -0.383  0.00  0.00    -0.040 C 
ATOM     12  C   LIG    1        2.455  -0.444  -1.318  0.00  0.00    +0.050 C 
ENDROOT
TORSDOF 0
ENDMDL
MODEL      153
REMARK  Name = ZINC000071785386
REMARK                            x       y       z     vdW  Elec       q    Type
REMARK                         _______ _______ _______ _____ _____    ______ ____
ROOT
ATOM      1  C   LIG    1       -0.016   1.305   0.009  0.00  0.00    +0.010 C 
ATOM      2  C   LIG    1        0.002  -0.004   0.002  0.00  0.00    -0.070 C 
ATOM      3  C   LIG    1       -1.299  -0.783   0.005  0.00  0.00    +0.070 C 
ATOM      4  C   LIG    1       -1.555  -1.398   1.372  0.00  0.00    -0.020 C 
ATOM      5  C   LIG    1       -0.519  -1.257   2.419  0.00  0.00    -0.040 C 
ATOM      6  C   LIG    1        0.725  -1.165   2.492  0.00  0.00    -0.010 C 
ATOM      7  C   LIG    1        1.762  -1.089   1.411  0.00  0.00    -0.020 C 
ATOM      8  C   LIG    1        1.573  -2.157   0.307  0.00  0.00    +0.050 C 
ATOM      9  C   LIG    1       -1.855  -2.897   1.179  0.00  0.00    +0.040 C 
ATOM     10  C   LIG    1       -2.855  -0.764   1.922  0.00  0.00    +0.040 C 
ATOM     11  C   LIG    1        1.321  -0.719  -0.014  0.00  0.00    -0.080 C 
ATOM     12  C   LIG    1        2.365  -0.057  -0.906  0.00  0.00    +0.060 C 
ENDROOT
TORSDOF 0
ENDMDL
MODEL      154
REMARK  Name = ZINC000071785387
REMARK                            x       y       z     vdW  Elec       q    Type
REMARK                         _______ _______ _______ _____ _____    ______ ____
ROOT
ATOM      1  C   LIG    1       -0.016   1.308   0.009  0.00  0.00    +0.000 C 
ATOM      2  C   LIG    1        0.002  -0.004   0.002  0.00  0.00    -0.060 C 
ATOM      3  C   LIG    1       -1.278  -0.809  -0.006  0.00  0.00    +0.070 C 
ATOM      4  C   LIG    1       -1.450  -1.641   1.259  0.00  0.00    -0.020 C 
ATOM      5  C   LIG    1       -0.560  -2.844   1.327  0.00  0.00    -0.040 C 
ATOM      6  C   LIG    1        0.753  -2.808   1.339  0.00  0.00    +0.010 C 
ATOM      7  C   LIG    1        1.477  -1.556   1.286  0.00  0.00    -0.090 C 
ATOM      8  C   LIG    1        2.559  -0.755   0.724  0.00  0.00    +0.130 C 
ATOM      9  C   LIG    1       -2.909  -2.153   1.269  0.00  0.00    +0.030 C 
ATOM     10  C   LIG    1       -1.280  -0.765   2.499  0.00  0.00    +0.030 C 
ATOM     11  C   LIG    1        1.283  -0.745  -0.014  0.00  0.00    -0.120 C 
ATOM     12  C   LIG    1        1.419  -1.514  -1.332  0.00  0.00    +0.060 C 
ENDROOT
TORSDOF 0
ENDMDL
MODEL      155
REMARK  Name = ZINC000071785381
REMARK                            x       y       z     vdW  Elec       q    Type
REMARK                         _______ _______ _______ _____ _____    ______ ____
ROOT
ATOM      1  C   LIG    1        0.160   1.229  -0.110  0.00  0.00    +0.010 C 
ATOM      2  C   LIG    1        0.144  -0.079  -0.040  0.00  0.00    -0.110 C 
ATOM      3  C   LIG    1       -1.070  -0.999  -0.104  0.00  0.00    +0.060 C 
ATOM      4  C   LIG    1       -0.730  -2.095   0.935  0.00  0.00    -0.060 C 
ATOM      5  C   LIG    1        0.788  -2.312   0.758  0.00  0.00    +0.000 C 
ATOM      6  C   LIG    1        1.013  -3.445  -0.264  0.00  0.00    +0.010 C 
ATOM      7  C   LIG    1        2.170  -2.931  -1.156  0.00  0.00    +0.010 C 
ATOM      8  C   LIG    1        1.855  -1.421  -1.288  0.00  0.00    +0.020 C 
ATOM      9  C   LIG    1       -1.499  -3.382   0.629  0.00  0.00    +0.030 C 
ATOM     10  C   LIG    1       -1.041  -1.609   2.352  0.00  0.00    +0.020 C 
ATOM     11  C   LIG    1        1.331  -1.012   0.116  0.00  0.00    -0.040 C 
ATOM     12  C   LIG    1        2.433  -0.360   0.953  0.00  0.00    +0.050 C 
ENDROOT
TORSDOF 0
ENDMDL
MODEL      156
REMARK  Name = ZINC000071785383
REMARK                            x       y       z     vdW  Elec       q    Type
REMARK                         _______ _______ _______ _____ _____    ______ ____
ROOT
ATOM      1  C   LIG    1       -0.016   1.302   0.009  0.00  0.00    +0.020 C 
ATOM      2  C   LIG    1        0.002  -0.004   0.002  0.00  0.00    -0.100 C 
ATOM      3  C   LIG    1       -1.187  -0.975   0.008  0.00  0.00    +0.060 C 
ATOM      4  C   LIG    1       -0.711  -2.254  -0.750  0.00  0.00    -0.050 C 
ATOM      5  C   LIG    1        0.738  -1.992  -1.063  0.00  0.00    -0.020 C 
ATOM      6  C   LIG    1        1.873  -2.980  -0.905  0.00  0.00    +0.020 C 
ATOM      7  C   LIG    1        3.120  -2.041  -0.804  0.00  0.00    +0.010 C 
ATOM      8  C   LIG    1        2.570  -0.622  -0.455  0.00  0.00    +0.030 C 
ATOM      9  C   LIG    1       -1.510  -2.388  -2.065  0.00  0.00    +0.030 C 
ATOM     10  C   LIG    1       -0.930  -3.516   0.088  0.00  0.00    +0.040 C 
ATOM     11  C   LIG    1        1.162  -0.908  -0.014  0.00  0.00    -0.060 C 
ATOM     12  C   LIG    1        1.263  -1.547   1.370  0.00  0.00    +0.020 C 
ENDROOT
TORSDOF 0
ENDMDL
MODEL      157
REMARK  Name = ZINC000071785389
REMARK                            x       y       z     vdW  Elec       q    Type
REMARK                         _______ _______ _______ _____ _____    ______ ____
ROOT
ATOM      1  C   LIG    1       -0.016   1.305   0.009  0.00  0.00    +0.010 C 
ATOM      2  C   LIG    1        0.002  -0.004   0.002  0.00  0.00    -0.070 C 
ATOM      3  C   LIG    1       -1.297  -0.785   0.017  0.00  0.00    +0.070 C 
ATOM      4  C   LIG    1       -1.590  -1.370  -1.356  0.00  0.00    -0.020 C 
ATOM      5  C   LIG    1       -0.569  -1.239  -2.417  0.00  0.00    -0.040 C 
ATOM      6  C   LIG    1        0.675  -1.159  -2.512  0.00  0.00    -0.010 C 
ATOM      7  C   LIG    1        1.731  -1.085  -1.450  0.00  0.00    -0.020 C 
ATOM      8  C   LIG    1        1.561  -2.157  -0.346  0.00  0.00    +0.050 C 
ATOM      9  C   LIG    1       -2.884  -0.701  -1.874  0.00  0.00    +0.040 C 
ATOM     10  C   LIG    1       -1.920  -2.866  -1.181  0.00  0.00    +0.040 C 
ATOM     11  C   LIG    1        1.321  -0.720  -0.014  0.00  0.00    -0.080 C 
ATOM     12  C   LIG    1        2.384  -0.063   0.859  0.00  0.00    +0.060 C 
ENDROOT
TORSDOF 0
ENDMDL
MODEL      158
REMARK  Name = ZINC000071785380
REMARK                            x       y       z     vdW  Elec       q    Type
REMARK                         _______ _______ _______ _____ _____    ______ ____
ROOT
ATOM      1  C   LIG    1       -0.016   1.302   0.009  0.00  0.00    +0.020 C 
ATOM      2  C   LIG    1        0.002  -0.004   0.002  0.00  0.00    -0.100 C 
ATOM      3  C   LIG    1       -1.187  -0.974   0.008  0.00  0.00    +0.060 C 
ATOM      4  C   LIG    1       -0.695  -2.267   0.730  0.00  0.00    -0.050 C 
ATOM      5  C   LIG    1        0.749  -1.993   1.038  0.00  0.00    -0.020 C 
ATOM      6  C   LIG    1        1.904  -2.954   0.942  0.00  0.00    +0.020 C 
ATOM      7  C   LIG    1        3.138  -2.015   0.756  0.00  0.00    +0.010 C 
ATOM      8  C   LIG    1        2.553  -0.584   0.514  0.00  0.00    +0.030 C 
ATOM      9  C   LIG    1       -0.898  -3.506  -0.145  0.00  0.00    +0.030 C 
ATOM     10  C   LIG    1       -1.484  -2.449   2.045  0.00  0.00    +0.030 C 
ATOM     11  C   LIG    1        1.170  -0.908  -0.014  0.00  0.00    -0.050 C 
ATOM     12  C   LIG    1        1.319  -1.508  -1.412  0.00  0.00    +0.030 C 
ENDROOT
TORSDOF 0
ENDMDL
MODEL      159
REMARK  Name = ZINC000038973960
REMARK                            x       y       z     vdW  Elec       q    Type
REMARK                         _______ _______ _______ _____ _____    ______ ____
ROOT
ATOM      1  C   LIG    1       -0.016   1.306   0.009  0.00  0.00    +0.010 C 
ATOM      2  C   LIG    1        0.002  -0.004   0.002  0.00  0.00    -0.110 C 
ATOM      3  C   LIG    1       -1.287  -0.797   0.008  0.00  0.00    +0.050 C 
ATOM      4  C   LIG    1       -1.215  -1.815   1.152  0.00  0.00    +0.020 C 
ATOM      5  C   LIG    1        0.051  -2.659   0.999  0.00  0.00    +0.000 C 
ATOM      6  C   LIG    1        1.295  -1.780   1.147  0.00  0.00    +0.140 C 
ATOM      7  C   LIG    1        2.546  -2.652   1.010  0.00  0.00    +0.000 C 
ATOM      8  C   LIG    1        2.712  -3.503   2.271  0.00  0.00    -0.020 C 
ATOM      9  C   LIG    1        2.890  -2.561   3.463  0.00  0.00    -0.010 C 
ATOM     10  C   LIG    1        1.682  -1.638   3.589  0.00  0.00    +0.190 C 
ATOM     11  C   LIG    1        0.528  -2.379   4.269  0.00  0.00    +0.000 C 
ATOM     12  C   LIG    1        3.953  -4.389   2.130  0.00  0.00    +0.030 C 
ATOM     13  O   LIG    1        1.280  -1.070   2.365  0.00  0.00    -0.370 OA
ATOM     14  C   LIG    1        1.307  -0.766  -0.015  0.00  0.00    +0.070 C 
ENDROOT
TORSDOF 0
ENDMDL
MODEL      160
REMARK  Name = ZINC000003106324
REMARK                            x       y       z     vdW  Elec       q    Type
REMARK                         _______ _______ _______ _____ _____    ______ ____
ROOT
ATOM      1  C   LIG    1        1.491  -1.678  -1.314  0.00  0.00    -0.030 C 
ATOM      2  C   LIG    1        1.068  -0.719  -2.428  0.00  0.00    +0.010 C 
ATOM      3  C   LIG    1        1.774  -1.105  -3.729  0.00  0.00    +0.000 C 
ATOM      4  C   LIG    1        3.289  -1.022  -3.531  0.00  0.00    +0.000 C 
ATOM      5  C   LIG    1        3.712  -1.982  -2.417  0.00  0.00    +0.010 C 
ATOM      6  C   LIG    1        1.104  -3.108  -1.698  0.00  0.00    +0.030 C 
ATOM      7  C   LIG    1        3.006  -1.595  -1.116  0.00  0.00    +0.010 C 
ENDROOT
BRANCH   1  11
ATOM      8  C   LIG    1       -0.016   1.306   0.009  0.00  0.00    +0.090 C 
ATOM      9  C   LIG    1        0.002  -0.004   0.002  0.00  0.00    -0.200 C 
ATOM     10  C   LIG    1       -0.745  -1.313  -0.004  0.00  0.00    +0.060 C 
ATOM     11  C   LIG    1        0.785  -1.292  -0.012  0.00  0.00    +0.010 C 
ENDBRANCH   1  11
TORSDOF 1
ENDMDL
MODEL      161
REMARK  Name = ZINC000071786562
REMARK                            x       y       z     vdW  Elec       q    Type
REMARK                         _______ _______ _______ _____ _____    ______ ____
ROOT
ATOM      1  C   LIG    1       -0.016   1.306   0.009  0.00  0.00    +0.000 C 
ATOM      2  C   LIG    1        0.002  -0.004   0.002  0.00  0.00    -0.110 C 
ATOM      3  C   LIG    1       -1.264  -0.834   0.003  0.00  0.00    +0.060 C 
ATOM      4  C   LIG    1       -1.279  -1.719  -1.228  0.00  0.00    -0.020 C 
ATOM      5  C   LIG    1        0.022  -1.815  -1.973  0.00  0.00    +0.010 C 
ATOM      6  C   LIG    1        1.319  -1.709  -1.222  0.00  0.00    -0.020 C 
ATOM      7  C   LIG    1        1.873  -3.094  -0.879  0.00  0.00    +0.020 C 
ATOM      8  C   LIG    1        1.281  -3.564   0.446  0.00  0.00    -0.000 C 
ATOM      9  C   LIG    1        0.026  -4.376   0.228  0.00  0.00    -0.010 C 
ATOM     10  C   LIG    1       -1.236  -3.574   0.439  0.00  0.00    -0.000 C 
ATOM     11  C   LIG    1       -1.808  -3.113  -0.885  0.00  0.00    +0.010 C 
ATOM     12  C   LIG    1        1.291  -0.799  -0.015  0.00  0.00    +0.060 C 
ENDROOT
TORSDOF 0
ENDMDL
MODEL      162
REMARK  Name = ZINC000003106323
REMARK                            x       y       z     vdW  Elec       q    Type
REMARK                         _______ _______ _______ _____ _____    ______ ____
ROOT
ATOM      1  C   LIG    1        1.505  -1.699   1.275  0.00  0.00    -0.030 C 
ATOM      2  C   LIG    1        1.123  -3.134   1.641  0.00  0.00    +0.010 C 
ATOM      3  C   LIG    1        1.843  -3.541   2.928  0.00  0.00    +0.000 C 
ATOM      4  C   LIG    1        3.355  -3.454   2.716  0.00  0.00    +0.000 C 
ATOM      5  C   LIG    1        3.737  -2.019   2.349  0.00  0.00    +0.000 C 
ATOM      6  C   LIG    1        1.094  -0.757   2.408  0.00  0.00    +0.030 C 
ATOM      7  C   LIG    1        3.017  -1.612   1.062  0.00  0.00    +0.010 C 
ENDROOT
BRANCH   1  11
ATOM      8  C   LIG    1       -0.016   1.306   0.009  0.00  0.00    +0.090 C 
ATOM      9  C   LIG    1        0.002  -0.004   0.002  0.00  0.00    -0.200 C 
ATOM     10  C   LIG    1       -0.745  -1.313  -0.004  0.00  0.00    +0.060 C 
ATOM     11  C   LIG    1        0.785  -1.292  -0.012  0.00  0.00    +0.010 C 
ENDBRANCH   1  11
TORSDOF 1
ENDMDL
MODEL      163
REMARK  Name = ZINC000002567433
REMARK                            x       y       z     vdW  Elec       q    Type
REMARK                         _______ _______ _______ _____ _____    ______ ____
ROOT
ATOM      1  C   LIG    1       -1.680  -1.137  -1.425  0.00  0.00    +0.010 C 
ENDROOT
BRANCH   1   2
ATOM      2  C   LIG    1       -1.293  -0.775   0.010  0.00  0.00    +0.080 C 
BRANCH   2   4
ATOM      3  C   LIG    1       -0.016   1.307   0.009  0.00  0.00    +0.080 C 
ATOM      4  C   LIG    1        0.002  -0.004   0.002  0.00  0.00    -0.120 C 
ATOM      5 BR   LIG    1        1.652  -0.927  -0.019  0.00  0.00    -0.070 Br
ENDBRANCH   2   4
ENDBRANCH   1   2
BRANCH   1   6
ATOM      6  C   LIG    1       -2.995  -1.919  -1.417  0.00  0.00    +0.000 C 
BRANCH   6   7
ATOM      7  C   LIG    1       -3.382  -2.281  -2.852  0.00  0.00    +0.000 C 
BRANCH   7   8
ATOM      8  C   LIG    1       -4.697  -3.064  -2.844  0.00  0.00    -0.010 C 
ATOM      9  C   LIG    1       -5.084  -3.425  -4.279  0.00  0.00    +0.000 C 
ENDBRANCH   7   8
ENDBRANCH   6   7
ENDBRANCH   1   6
TORSDOF 5
ENDMDL
MODEL      164
REMARK  Name = ZINC000057990161
REMARK                            x       y       z     vdW  Elec       q    Type
REMARK                         _______ _______ _______ _____ _____    ______ ____
ROOT
ATOM      1  C   LIG    1        1.317  -0.740  -0.015  0.00  0.00    +0.010 C 
ATOM      2  C   LIG    1        1.422  -1.624   1.230  0.00  0.00    +0.010 C 
ATOM      3  C   LIG    1        2.538  -2.653   1.031  0.00  0.00    +0.010 C 
ATOM      4  C   LIG    1        3.897  -1.971   1.204  0.00  0.00    +0.000 C 
ATOM      5  C   LIG    1        4.215  -1.146  -0.045  0.00  0.00    +0.000 C 
ATOM      6  C   LIG    1        3.872  -1.958  -1.295  0.00  0.00    +0.000 C 
ATOM      7  C   LIG    1        2.695  -1.304  -2.021  0.00  0.00    +0.000 C 
ATOM      8  C   LIG    1        1.398  -1.611  -1.269  0.00  0.00    +0.010 C 
ENDROOT
BRANCH   1  10
ATOM      9  C   LIG    1       -0.016   1.306   0.009  0.00  0.00    -0.010 C 
ATOM     10  C   LIG    1        0.002  -0.004   0.002  0.00  0.00    -0.040 C 
ENDBRANCH   1  10
TORSDOF 1
ENDMDL
MODEL      165
REMARK  Name = ZINC000002106149
REMARK                            x       y       z     vdW  Elec       q    Type
REMARK                         _______ _______ _______ _____ _____    ______ ____
ROOT
ATOM      1  C   LIG    1       -3.299  -0.406  -1.150  0.00  0.00    -0.040 C 
ATOM      2  C   LIG    1       -3.554  -1.909  -1.030  0.00  0.00    +0.050 C 
ATOM      3  C   LIG    1       -2.569  -0.116  -2.463  0.00  0.00    +0.030 C 
ENDROOT
BRANCH   1   4
ATOM      4  C   LIG    1       -4.614   0.330  -1.134  0.00  0.00    +0.080 C 
ATOM      5  C   LIG    1       -4.968   1.088  -2.174  0.00  0.00    -0.110 C 
BRANCH   5   6
ATOM      6  C   LIG    1       -6.244   1.802  -2.158  0.00  0.00    +0.380 C 
ATOM      7  O   LIG    1       -6.981   1.705  -1.199  0.00  0.00    -0.470 OA
ATOM      8  C   LIG    1       -6.644   2.657  -3.332  0.00  0.00    +0.060 C 
ENDBRANCH   5   6
ENDBRANCH   1   4
BRANCH   1   9
ATOM      9  C   LIG    1       -2.438   0.061   0.026  0.00  0.00    +0.060 C 
BRANCH   9  12
ATOM     10  C   LIG    1       -0.018   1.503   0.010  0.00  0.00    +0.080 C 
ATOM     11  C   LIG    1        0.002  -0.004   0.002  0.00  0.00    -0.130 C 
ATOM     12  C   LIG    1       -1.123  -0.674   0.009  0.00  0.00    -0.050 C 
ATOM     13  C   LIG    1        1.317  -0.740  -0.015  0.00  0.00    +0.070 C 
ENDBRANCH   9  12
ENDBRANCH   1   9
TORSDOF 4
ENDMDL
MODEL      166
REMARK  Name = ZINC000071788894
REMARK                            x       y       z     vdW  Elec       q    Type
REMARK                         _______ _______ _______ _____ _____    ______ ____
ROOT
ATOM      1  C   LIG    1        1.601  -1.705   1.182  0.00  0.00    +0.020 C 
ATOM      2  C   LIG    1        1.511  -2.987   0.923  0.00  0.00    -0.130 C 
ATOM      3 BR   LIG    1        1.099  -4.205   2.309  0.00  0.00    -0.070 Br
ENDROOT
BRANCH   1   4
ATOM      4  C   LIG    1        2.066  -0.750   0.112  0.00  0.00    +0.110 C 
BRANCH   4   6
ATOM      5  C   LIG    1        1.261   1.548  -0.066  0.00  0.00    +0.010 C 
ATOM      6  C   LIG    1        0.989   0.270  -0.153  0.00  0.00    -0.050 C 
ENDBRANCH   4   6
ENDBRANCH   1   4
BRANCH   2   7
ATOM      7  C   LIG    1        1.736  -3.490  -0.480  0.00  0.00    +0.080 C 
BRANCH   7   8
ATOM      8  C   LIG    1        3.226  -3.771  -0.688  0.00  0.00    +0.010 C 
ATOM      9  C   LIG    1        3.454  -4.281  -2.112  0.00  0.00    +0.020 C 
ENDBRANCH   7   8
ENDBRANCH   2   7
TORSDOF 4
ENDMDL
MODEL      167
REMARK  Name = ZINC000101172069
REMARK                            x       y       z     vdW  Elec       q    Type
REMARK                         _______ _______ _______ _____ _____    ______ ____
ROOT
ATOM      1  C   LIG    1        2.192  -4.544  -3.791  0.00  0.00    +0.110 C 
ENDROOT
BRANCH   1   2
ATOM      2  C   LIG    1        2.212  -6.051  -3.800  0.00  0.00    +0.210 C 
ATOM      3  N   LIG    1        1.665  -6.659  -2.829  0.00  0.00    -0.530 NA
ATOM      4  C   LIG    1        1.565  -8.082  -2.592  0.00  0.00    +0.240 C 
ATOM      5  C   LIG    1        1.783  -8.906  -3.856  0.00  0.00    +0.010 C 
ATOM      6  C   LIG    1        3.139  -8.530  -4.469  0.00  0.00    +0.100 C 
ATOM      7  S   LIG    1        2.987  -6.857  -5.157  0.00  0.00    -0.190 S 
ENDBRANCH   1   2
BRANCH   1   8
ATOM      8  C   LIG    1        1.476  -4.051  -2.532  0.00  0.00    +0.040 C 
BRANCH   8   9
ATOM      9  C   LIG    1        1.455  -2.521  -2.524  0.00  0.00    +0.000 C 
BRANCH   9  10
ATOM     10  C   LIG    1        0.739  -2.027  -1.265  0.00  0.00    +0.000 C 
BRANCH  10  11
ATOM     11  C   LIG    1        0.718  -0.497  -1.257  0.00  0.00    +0.000 C 
BRANCH  11  13
ATOM     12  C   LIG    1       -0.019   1.526   0.010  0.00  0.00    +0.000 C 
ATOM     13  C   LIG    1        0.002  -0.004   0.002  0.00  0.00    -0.010 C 
ENDBRANCH  11  13
ENDBRANCH  10  11
ENDBRANCH   9  10
ENDBRANCH   8   9
ENDBRANCH   1   8
TORSDOF 6
ENDMDL
MODEL      168
REMARK  Name = ZINC000001577329
REMARK                            x       y       z     vdW  Elec       q    Type
REMARK                         _______ _______ _______ _____ _____    ______ ____
ROOT
ATOM      1  C   LIG    1        2.192  -4.544  -3.791  0.00  0.00    +0.030 C 
ENDROOT
BRANCH   1   2
ATOM      2  C   LIG    1        1.476  -4.051  -2.532  0.00  0.00    +0.000 C 
BRANCH   2   3
ATOM      3  C   LIG    1        1.455  -2.521  -2.524  0.00  0.00    +0.000 C 
BRANCH   3   4
ATOM      4  C   LIG    1        0.739  -2.027  -1.265  0.00  0.00    +0.000 C 
BRANCH   4   5
ATOM      5  C   LIG    1        0.718  -0.497  -1.257  0.00  0.00    +0.000 C 
BRANCH   5   7
ATOM      6  C   LIG    1       -0.019   1.526   0.010  0.00  0.00    +0.000 C 
ATOM      7  C   LIG    1        0.002  -0.004   0.002  0.00  0.00    -0.010 C 
ENDBRANCH   5   7
ENDBRANCH   4   5
ENDBRANCH   3   4
ENDBRANCH   2   3
ENDBRANCH   1   2
BRANCH   1   8
ATOM      8  C   LIG    1        2.213  -6.074  -3.800  0.00  0.00    +0.030 C 
BRANCH   8   9
ATOM      9  C   LIG    1        2.918  -6.560  -5.040  0.00  0.00    +0.360 C 
ATOM     10  O   LIG    1        3.359  -5.765  -5.834  0.00  0.00    -0.450 OA
BRANCH   9  11
ATOM     11  C   LIG    1        3.074  -8.038  -5.287  0.00  0.00    -0.060 C 
ATOM     12  C   LIG    1        4.355  -8.290  -6.085  0.00  0.00    +0.040 C 
ATOM     13  C   LIG    1        1.870  -8.552  -6.081  0.00  0.00    +0.050 C 
ENDBRANCH   9  11
ENDBRANCH   8   9
ENDBRANCH   1   8
TORSDOF 8
ENDMDL
MODEL      169
REMARK  Name = ZINC000001725002
REMARK                            x       y       z     vdW  Elec       q    Type
REMARK                         _______ _______ _______ _____ _____    ______ ____
ROOT
ATOM      1  C   LIG    1        4.072  -4.177   2.304  0.00  0.00    +0.400 C 
ATOM      2  O   LIG    1        4.887  -3.943   1.437  0.00  0.00    -0.450 OA
ENDROOT
BRANCH   1   3
ATOM      3  C   LIG    1        4.368  -5.180   3.340  0.00  0.00    -0.170 A 
ATOM      4  C   LIG    1        3.428  -5.457   4.338  0.00  0.00    +0.060 A 
ATOM      5  C   LIG    1        3.712  -6.398   5.305  0.00  0.00    +0.000 A 
ATOM      6  C   LIG    1        4.924  -7.067   5.290  0.00  0.00    +0.040 A 
ATOM      7  C   LIG    1        5.859  -6.798   4.306  0.00  0.00    +0.000 A 
ATOM      8  C   LIG    1        5.587  -5.865   3.328  0.00  0.00    +0.070 A 
ENDBRANCH   1   3
BRANCH   1   9
ATOM      9  C   LIG    1        2.757  -3.441   2.321  0.00  0.00    +0.030 C 
BRANCH   9  10
ATOM     10  C   LIG    1        2.705  -2.464   1.145  0.00  0.00    +0.030 C 
BRANCH  10  11
ATOM     11  C   LIG    1        1.370  -1.717   1.161  0.00  0.00    +0.000 C 
BRANCH  11  12
ATOM     12  C   LIG    1        1.317  -0.740  -0.015  0.00  0.00    +0.040 C 
BRANCH  12  14
ATOM     13  C   LIG    1       -0.016   1.306   0.009  0.00  0.00    +0.010 C 
ATOM     14  C   LIG    1        0.002  -0.004   0.002  0.00  0.00    -0.050 C 
ENDBRANCH  12  14
ENDBRANCH  11  12
ENDBRANCH  10  11
ENDBRANCH   9  10
ENDBRANCH   1   9
TORSDOF 6
ENDMDL
MODEL      170
REMARK  Name = ZINC000038866508
REMARK                            x       y       z     vdW  Elec       q    Type
REMARK                         _______ _______ _______ _____ _____    ______ ____
ROOT
ATOM      1  C   LIG    1       -1.319  -1.741  -1.176  0.00  0.00    +0.090 C 
ENDROOT
BRANCH   1   2
ATOM      2  C   LIG    1       -2.613  -2.512  -1.168  0.00  0.00    -0.080 A 
ATOM      3  C   LIG    1       -3.552  -2.277  -0.180  0.00  0.00    +0.020 A 
ATOM      4  C   LIG    1       -4.739  -2.984  -0.173  0.00  0.00    +0.010 A 
ATOM      5  C   LIG    1       -4.989  -3.926  -1.153  0.00  0.00    +0.010 A 
ATOM      6  C   LIG    1       -4.051  -4.161  -2.142  0.00  0.00    +0.000 A 
ATOM      7  C   LIG    1       -2.865  -3.450  -2.151  0.00  0.00    +0.010 A 
ENDBRANCH   1   2
BRANCH   1   8
ATOM      8  C   LIG    1       -1.209  -0.979  -2.431  0.00  0.00    +0.210 C 
ATOM      9  N   LIG    1       -1.125  -0.391  -3.400  0.00  0.00    -0.420 NA
ENDBRANCH   1   8
BRANCH   1  10
ATOM     10  C   LIG    1       -1.293  -0.775   0.010  0.00  0.00    +0.090 C 
BRANCH  10  12
ATOM     11  C   LIG    1       -0.016   1.306   0.009  0.00  0.00    +0.020 C 
ATOM     12  C   LIG    1        0.002  -0.004   0.002  0.00  0.00    -0.050 C 
ENDBRANCH  10  12
ENDBRANCH   1  10
BRANCH   1  13
ATOM     13  C   LIG    1       -0.144  -2.715  -1.067  0.00  0.00    +0.090 C 
BRANCH  13  14
ATOM     14  C   LIG    1       -0.256  -3.495   0.217  0.00  0.00    -0.030 C 
ATOM     15  C   LIG    1       -0.256  -4.805   0.191  0.00  0.00    +0.020 C 
ENDBRANCH  13  14
ENDBRANCH   1  13
TORSDOF 6
ENDMDL
MODEL      171
REMARK  Name = ZINC000170155917
REMARK                            x       y       z     vdW  Elec       q    Type
REMARK                         _______ _______ _______ _____ _____    ______ ____
ROOT
ATOM      1  C   LIG    1       -0.016   1.306   0.009  0.00  0.00    +0.000 C 
ATOM      2  C   LIG    1        0.002  -0.004   0.002  0.00  0.00    +0.000 C 
ENDROOT
BRANCH   2   3
ATOM      3 SI   LIG    1        1.632  -0.916  -0.018  0.00  0.00    +0.000 Si
ATOM      4  C   LIG    1        1.731  -1.977  -1.546  0.00  0.00    +0.000 C 
ATOM      5  C   LIG    1        1.760  -1.994   1.496  0.00  0.00    +0.000 C 
ATOM      6  C   LIG    1        3.032   0.314  -0.025  0.00  0.00    +0.000 C 
ENDBRANCH   2   3
BRANCH   2   7
ATOM      7  C   LIG    1       -1.293  -0.775   0.010  0.00  0.00    +0.000 C 
BRANCH   7   8
ATOM      8 SI   LIG    1       -2.725   0.416   0.030  0.00  0.00    +0.000 Si
ATOM      9  C   LIG    1       -2.626   1.480   1.556  0.00  0.00    +0.000 C 
ATOM     10  C   LIG    1       -4.325  -0.537   0.041  0.00  0.00    +0.000 C 
ATOM     11  C   LIG    1       -2.655   1.496  -1.486  0.00  0.00    +0.000 C 
ENDBRANCH   7   8
ENDBRANCH   2   7
TORSDOF 3
ENDMDL
MODEL      172
REMARK  Name = ZINC000085650673
REMARK                            x       y       z     vdW  Elec       q    Type
REMARK                         _______ _______ _______ _____ _____    ______ ____
ROOT
ATOM      1  C   LIG    1       -2.659  -3.475  -2.337  0.00  0.00    -0.043 A 
ATOM      2  C   LIG    1       -3.174  -3.062  -3.551  0.00  0.00    +0.042 A 
ATOM      3  C   LIG    1       -3.197  -3.936  -4.625  0.00  0.00    +0.125 A 
ATOM      4  C   LIG    1       -2.705  -5.222  -4.482  0.00  0.00    +0.058 A 
ATOM      5  C   LIG    1       -2.190  -5.633  -3.266  0.00  0.00    +0.044 A 
ATOM      6 CL   LIG    1       -1.571  -7.245  -3.085  0.00  0.00    -0.083 Cl
ATOM      7  F   LIG    1       -3.701  -3.534  -5.813  0.00  0.00    -0.205 F 
ATOM      8  C   LIG    1       -2.162  -4.757  -2.195  0.00  0.00    +0.023 A 
ENDROOT
BRANCH   1   9
ATOM      9  C   LIG    1       -2.633  -2.524  -1.168  0.00  0.00    +0.035 C 
BRANCH   9  10
ATOM     10  C   LIG    1       -1.319  -1.741  -1.176  0.00  0.00    +0.009 C 
BRANCH  10  11
ATOM     11  C   LIG    1       -1.293  -0.775   0.010  0.00  0.00    +0.027 C 
BRANCH  11  13
ATOM     12  C   LIG    1       -0.016   1.306   0.009  0.00  0.00    +0.004 C 
ATOM     13  C   LIG    1        0.002  -0.004   0.002  0.00  0.00    -0.034 C 
ENDBRANCH  11  13
ENDBRANCH  10  11
ENDBRANCH   9  10
ENDBRANCH   1   9
TORSDOF 4
ENDMDL
MODEL      173
REMARK  Name = ZINC000085650647
REMARK                            x       y       z     vdW  Elec       q    Type
REMARK                         _______ _______ _______ _____ _____    ______ ____
ROOT
ATOM      1  C   LIG    1       -2.659  -3.475  -2.337  0.00  0.00    -0.046 A 
ATOM      2  C   LIG    1       -3.174  -3.063  -3.552  0.00  0.00    +0.004 A 
ATOM      3  C   LIG    1       -3.197  -3.934  -4.625  0.00  0.00    +0.002 A 
ATOM      4  C   LIG    1       -2.706  -5.218  -4.483  0.00  0.00    +0.020 A 
ATOM      5  C   LIG    1       -2.191  -5.631  -3.267  0.00  0.00    +0.041 A 
ATOM      6 CL   LIG    1       -1.573  -7.244  -3.088  0.00  0.00    -0.084 Cl
ATOM      7  C   LIG    1       -2.162  -4.757  -2.195  0.00  0.00    +0.023 A 
ENDROOT
BRANCH   1   8
ATOM      8  C   LIG    1       -2.633  -2.524  -1.168  0.00  0.00    +0.035 C 
BRANCH   8   9
ATOM      9  C   LIG    1       -1.319  -1.741  -1.176  0.00  0.00    +0.009 C 
BRANCH   9  10
ATOM     10  C   LIG    1       -1.293  -0.775   0.010  0.00  0.00    +0.027 C 
BRANCH  10  12
ATOM     11  C   LIG    1       -0.016   1.306   0.009  0.00  0.00    +0.004 C 
ATOM     12  C   LIG    1        0.002  -0.004   0.002  0.00  0.00    -0.034 C 
ENDBRANCH  10  12
ENDBRANCH   9  10
ENDBRANCH   8   9
ENDBRANCH   1   8
TORSDOF 4
ENDMDL
MODEL      174
REMARK  Name = ZINC000064624667
REMARK                            x       y       z     vdW  Elec       q    Type
REMARK                         _______ _______ _______ _____ _____    ______ ____
ROOT
ATOM      1  C   LIG    1        2.756  -3.427   2.303  0.00  0.00    -0.044 A 
ATOM      2  C   LIG    1        3.354  -3.048   3.490  0.00  0.00    +0.004 A 
ATOM      3  C   LIG    1        3.401  -3.931   4.553  0.00  0.00    +0.000 A 
ATOM      4  C   LIG    1        2.851  -5.193   4.428  0.00  0.00    +0.000 A 
ATOM      5  C   LIG    1        2.252  -5.571   3.241  0.00  0.00    +0.003 A 
ATOM      6  C   LIG    1        2.201  -4.687   2.180  0.00  0.00    -0.047 A 
ATOM      7  C   LIG    1        1.549  -5.100   0.885  0.00  0.00    +0.044 C 
ENDROOT
BRANCH   1   8
ATOM      8  C   LIG    1        2.705  -2.464   1.145  0.00  0.00    +0.036 C 
BRANCH   8   9
ATOM      9  C   LIG    1        1.370  -1.717   1.161  0.00  0.00    +0.009 C 
BRANCH   9  10
ATOM     10  C   LIG    1        1.317  -0.740  -0.015  0.00  0.00    +0.027 C 
BRANCH  10  12
ATOM     11  C   LIG    1       -0.016   1.306   0.009  0.00  0.00    +0.004 C 
ATOM     12  C   LIG    1        0.002  -0.004   0.002  0.00  0.00    -0.034 C 
ENDBRANCH  10  12
ENDBRANCH   9  10
ENDBRANCH   8   9
ENDBRANCH   1   8
TORSDOF 4
ENDMDL
MODEL      175
REMARK  Name = ZINC000085650657
REMARK                            x       y       z     vdW  Elec       q    Type
REMARK                         _______ _______ _______ _____ _____    ______ ____
ROOT
ATOM      1  C   LIG    1        2.756  -3.427   2.303  0.00  0.00    -0.047 A 
ATOM      2  C   LIG    1        3.260  -3.014   3.522  0.00  0.00    +0.003 A 
ATOM      3  C   LIG    1        3.308  -3.898   4.585  0.00  0.00    +0.001 A 
ATOM      4  C   LIG    1        2.851  -5.193   4.428  0.00  0.00    +0.003 A 
ATOM      5  C   LIG    1        2.346  -5.605   3.209  0.00  0.00    -0.050 A 
ATOM      6  C   LIG    1        1.849  -7.017   3.037  0.00  0.00    +0.044 C 
ATOM      7  C   LIG    1        2.295  -4.721   2.147  0.00  0.00    +0.007 A 
ENDROOT
BRANCH   1   8
ATOM      8  C   LIG    1        2.705  -2.464   1.145  0.00  0.00    +0.035 C 
BRANCH   8   9
ATOM      9  C   LIG    1        1.370  -1.717   1.161  0.00  0.00    +0.009 C 
BRANCH   9  10
ATOM     10  C   LIG    1        1.317  -0.740  -0.015  0.00  0.00    +0.027 C 
BRANCH  10  12
ATOM     11  C   LIG    1       -0.016   1.306   0.009  0.00  0.00    +0.004 C 
ATOM     12  C   LIG    1        0.002  -0.004   0.002  0.00  0.00    -0.034 C 
ENDBRANCH  10  12
ENDBRANCH   9  10
ENDBRANCH   8   9
ENDBRANCH   1   8
TORSDOF 4
ENDMDL
MODEL      176
REMARK  Name = ZINC000085650661
REMARK                            x       y       z     vdW  Elec       q    Type
REMARK                         _______ _______ _______ _____ _____    ______ ____
ROOT
ATOM      1  C   LIG    1       -2.659  -3.475  -2.337  0.00  0.00    -0.047 A 
ATOM      2  C   LIG    1       -3.174  -3.063  -3.552  0.00  0.00    +0.004 A 
ATOM      3  C   LIG    1       -3.197  -3.935  -4.624  0.00  0.00    +0.003 A 
ATOM      4  C   LIG    1       -2.706  -5.219  -4.481  0.00  0.00    -0.050 A 
ATOM      5  C   LIG    1       -2.189  -5.630  -3.267  0.00  0.00    +0.003 A 
ATOM      6  C   LIG    1       -2.732  -6.170  -5.650  0.00  0.00    +0.044 C 
ATOM      7  C   LIG    1       -2.162  -4.757  -2.196  0.00  0.00    +0.004 A 
ENDROOT
BRANCH   1   8
ATOM      8  C   LIG    1       -2.633  -2.524  -1.168  0.00  0.00    +0.035 C 
BRANCH   8   9
ATOM      9  C   LIG    1       -1.319  -1.741  -1.176  0.00  0.00    +0.009 C 
BRANCH   9  10
ATOM     10  C   LIG    1       -1.293  -0.775   0.010  0.00  0.00    +0.027 C 
BRANCH  10  12
ATOM     11  C   LIG    1       -0.016   1.306   0.009  0.00  0.00    +0.004 C 
ATOM     12  C   LIG    1        0.002  -0.004   0.002  0.00  0.00    -0.034 C 
ENDBRANCH  10  12
ENDBRANCH   9  10
ENDBRANCH   8   9
ENDBRANCH   1   8
TORSDOF 4
ENDMDL
MODEL      177
REMARK  Name = ZINC000059030267
REMARK                            x       y       z     vdW  Elec       q    Type
REMARK                         _______ _______ _______ _____ _____    ______ ____
ROOT
ATOM      1  C   LIG    1        2.756  -3.427   2.303  0.00  0.00    -0.047 A 
ATOM      2  C   LIG    1        3.260  -3.014   3.522  0.00  0.00    +0.005 A 
ATOM      3  C   LIG    1        3.308  -3.897   4.585  0.00  0.00    +0.020 A 
ATOM      4  C   LIG    1        2.851  -5.193   4.428  0.00  0.00    +0.041 A 
ATOM      5  C   LIG    1        2.347  -5.605   3.208  0.00  0.00    +0.020 A 
ATOM      6 CL   LIG    1        2.910  -6.302   5.763  0.00  0.00    -0.084 Cl
ATOM      7  C   LIG    1        2.295  -4.720   2.147  0.00  0.00    +0.005 A 
ENDROOT
BRANCH   1   8
ATOM      8  C   LIG    1        2.705  -2.464   1.145  0.00  0.00    +0.035 C 
BRANCH   8   9
ATOM      9  C   LIG    1        1.370  -1.717   1.161  0.00  0.00    +0.009 C 
BRANCH   9  10
ATOM     10  C   LIG    1        1.317  -0.740  -0.015  0.00  0.00    +0.027 C 
BRANCH  10  12
ATOM     11  C   LIG    1       -0.016   1.306   0.009  0.00  0.00    +0.004 C 
ATOM     12  C   LIG    1        0.002  -0.004   0.002  0.00  0.00    -0.034 C 
ENDBRANCH  10  12
ENDBRANCH   9  10
ENDBRANCH   8   9
ENDBRANCH   1   8
TORSDOF 4
ENDMDL
MODEL      178
REMARK  Name = ZINC000071795205
REMARK                            x       y       z     vdW  Elec       q    Type
REMARK                         _______ _______ _______ _____ _____    ______ ____
ROOT
ATOM      1  C   LIG    1        2.685  -2.453   1.145  0.00  0.00    -0.110 A 
ATOM      2  C   LIG    1        2.805  -3.641   0.445  0.00  0.00    +0.110 A 
ATOM      3  C   LIG    1        4.014  -4.316   0.430  0.00  0.00    -0.010 A 
ATOM      4  C   LIG    1        5.100  -3.803   1.114  0.00  0.00    +0.060 A 
ATOM      5  C   LIG    1        4.980  -2.616   1.813  0.00  0.00    +0.020 A 
ATOM      6  F   LIG    1        1.743  -4.142  -0.223  0.00  0.00    -0.130 F 
ATOM      7  C   LIG    1        3.774  -1.938   1.824  0.00  0.00    -0.010 A 
ATOM      8 CL   LIG    1        3.625  -0.448   2.702  0.00  0.00    -0.050 Cl
ENDROOT
BRANCH   1   9
ATOM      9  C   LIG    1        1.370  -1.717   1.161  0.00  0.00    +0.090 C 
BRANCH   9  10
ATOM     10  C   LIG    1        1.317  -0.740  -0.015  0.00  0.00    +0.050 C 
BRANCH  10  12
ATOM     11  C   LIG    1       -0.016   1.306   0.009  0.00  0.00    +0.010 C 
ATOM     12  C   LIG    1        0.002  -0.004   0.002  0.00  0.00    -0.050 C 
ENDBRANCH  10  12
ENDBRANCH   9  10
ENDBRANCH   1   9
TORSDOF 3
ENDMDL
MODEL      179
REMARK  Name = ZINC000071795294
REMARK                            x       y       z     vdW  Elec       q    Type
REMARK                         _______ _______ _______ _____ _____    ______ ____
ROOT
ATOM      1  C   LIG    1       -2.613  -2.512  -1.168  0.00  0.00    -0.080 A 
ATOM      2  C   LIG    1       -2.690  -3.717  -0.474  0.00  0.00    +0.010 A 
ATOM      3  C   LIG    1       -3.844  -4.439  -0.446  0.00  0.00    +0.030 A 
ATOM      4  C   LIG    1       -4.977  -3.963  -1.127  0.00  0.00    -0.060 A 
ATOM      5  C   LIG    1       -6.186  -4.679  -1.121  0.00  0.00    +0.020 A 
ATOM      6  C   LIG    1       -7.263  -4.188  -1.792  0.00  0.00    +0.000 A 
ATOM      7  C   LIG    1       -7.187  -2.982  -2.487  0.00  0.00    +0.000 A 
ATOM      8  C   LIG    1       -6.033  -2.261  -2.515  0.00  0.00    +0.020 A 
ATOM      9  C   LIG    1       -4.899  -2.737  -1.834  0.00  0.00    -0.050 A 
ATOM     10  C   LIG    1       -3.692  -2.018  -1.835  0.00  0.00    +0.020 A 
ENDROOT
BRANCH   1  11
ATOM     11  C   LIG    1       -1.319  -1.741  -1.176  0.00  0.00    +0.070 C 
BRANCH  11  12
ATOM     12  C   LIG    1       -1.293  -0.775   0.010  0.00  0.00    +0.050 C 
BRANCH  12  14
ATOM     13  C   LIG    1       -0.016   1.306   0.009  0.00  0.00    +0.010 C 
ATOM     14  C   LIG    1        0.002  -0.004   0.002  0.00  0.00    -0.050 C 
ENDBRANCH  12  14
ENDBRANCH  11  12
ENDBRANCH   1  11
TORSDOF 3
ENDMDL
MODEL      180
REMARK  Name = ZINC000002031990
REMARK                            x       y       z     vdW  Elec       q    Type
REMARK                         _______ _______ _______ _____ _____    ______ ____
ROOT
ATOM      1  C   LIG    1       -2.633  -2.524  -1.168  0.00  0.00    +0.030 C 
ATOM      2  C   LIG    1       -2.690  -3.411   0.077  0.00  0.00    +0.030 C 
ENDROOT
BRANCH   1   3
ATOM      3  C   LIG    1       -2.713  -3.385  -2.402  0.00  0.00    -0.080 A 
ATOM      4  C   LIG    1       -1.754  -4.353  -2.633  0.00  0.00    +0.000 A 
ATOM      5  C   LIG    1       -1.827  -5.143  -3.765  0.00  0.00    +0.000 A 
ATOM      6  C   LIG    1       -2.860  -4.964  -4.667  0.00  0.00    -0.010 A 
ATOM      7  C   LIG    1       -3.819  -3.996  -4.436  0.00  0.00    +0.000 A 
ATOM      8  C   LIG    1       -3.748  -3.209  -3.302  0.00  0.00    +0.000 A 
ENDBRANCH   1   3
BRANCH   1   9
ATOM      9  C   LIG    1       -1.319  -1.741  -1.176  0.00  0.00    +0.020 C 
BRANCH   9  10
ATOM     10  C   LIG    1       -1.293  -0.775   0.010  0.00  0.00    +0.050 C 
BRANCH  10  12
ATOM     11  C   LIG    1       -0.016   1.306   0.009  0.00  0.00    +0.000 C 
ATOM     12  C   LIG    1        0.002  -0.004   0.002  0.00  0.00    -0.050 C 
ENDBRANCH  10  12
ENDBRANCH   9  10
ENDBRANCH   1   9
TORSDOF 4
ENDMDL
MODEL      181
REMARK  Name = ZINC000001769509
REMARK                            x       y       z     vdW  Elec       q    Type
REMARK                         _______ _______ _______ _____ _____    ______ ____
ROOT
ATOM      1  C   LIG    1       -2.633  -2.524  -1.168  0.00  0.00    +0.030 C 
ATOM      2  C   LIG    1       -3.801  -1.563  -1.402  0.00  0.00    +0.030 C 
ENDROOT
BRANCH   1   3
ATOM      3  C   LIG    1       -2.608  -3.559  -2.262  0.00  0.00    -0.080 A 
ATOM      4  C   LIG    1       -2.454  -3.170  -3.580  0.00  0.00    +0.000 A 
ATOM      5  C   LIG    1       -2.431  -4.120  -4.583  0.00  0.00    +0.000 A 
ATOM      6  C   LIG    1       -2.561  -5.460  -4.270  0.00  0.00    -0.010 A 
ATOM      7  C   LIG    1       -2.713  -5.850  -2.952  0.00  0.00    +0.000 A 
ATOM      8  C   LIG    1       -2.732  -4.900  -1.948  0.00  0.00    +0.000 A 
ENDBRANCH   1   3
BRANCH   1   9
ATOM      9  C   LIG    1       -1.319  -1.741  -1.176  0.00  0.00    +0.020 C 
BRANCH   9  10
ATOM     10  C   LIG    1       -1.293  -0.775   0.010  0.00  0.00    +0.040 C 
BRANCH  10  12
ATOM     11  C   LIG    1       -0.016   1.306   0.009  0.00  0.00    +0.000 C 
ATOM     12  C   LIG    1        0.002  -0.004   0.002  0.00  0.00    -0.050 C 
ENDBRANCH  10  12
ENDBRANCH   9  10
ENDBRANCH   1   9
TORSDOF 4
ENDMDL
MODEL      182
REMARK  Name = ZINC000220383895
REMARK                            x       y       z     vdW  Elec       q    Type
REMARK                         _______ _______ _______ _____ _____    ______ ____
ROOT
ATOM      1  C   LIG    1       -0.018   1.503   0.010  0.00  0.00    +0.090 C 
ATOM      2  C   LIG    1        0.002  -0.004   0.002  0.00  0.00    -0.080 A 
ATOM      3  C   LIG    1        0.006  -0.686  -1.202  0.00  0.00    +0.010 A 
ATOM      4  C   LIG    1        0.025  -2.066  -1.216  0.00  0.00    +0.040 A 
ATOM      5  C   LIG    1        0.041  -2.773  -0.013  0.00  0.00    -0.050 A 
ATOM      6  C   LIG    1        0.037  -2.079   1.197  0.00  0.00    +0.030 A 
ATOM      7  C   LIG    1        0.023  -0.699   1.198  0.00  0.00    +0.010 A 
ENDROOT
BRANCH   5   8
ATOM      8  C   LIG    1        0.062  -4.254  -0.021  0.00  0.00    +0.010 A 
ATOM      9  C   LIG    1        0.952  -5.008   0.713  0.00  0.00    -0.170 A 
ATOM     10  S   LIG    1        0.636  -6.713   0.419  0.00  0.00    +0.260 S 
ATOM     11  C   LIG    1       -0.643  -6.346  -0.647  0.00  0.00    -0.050 A 
ATOM     12  C   LIG    1       -0.816  -5.030  -0.764  0.00  0.00    +0.020 A 
BRANCH   9  13
ATOM     13  C   LIG    1        1.970  -4.487   1.575  0.00  0.00    +0.280 C 
ATOM     14  N   LIG    1        2.777  -4.074   2.259  0.00  0.00    -0.400 NA
ENDBRANCH   9  13
ENDBRANCH   5   8
TORSDOF 2
ENDMDL
MODEL      183
REMARK  Name = ZINC000021990223
REMARK                            x       y       z     vdW  Elec       q    Type
REMARK                         _______ _______ _______ _____ _____    ______ ____
ROOT
ATOM      1  C   LIG    1        2.482  -2.574   0.997  0.00  0.00    +0.210 C 
ENDROOT
BRANCH   1   2
ATOM      2  C   LIG    1        2.155  -3.993   1.386  0.00  0.00    -0.090 A 
ATOM      3  C   LIG    1        1.120  -4.248   2.265  0.00  0.00    +0.040 A 
ATOM      4  C   LIG    1        0.820  -5.550   2.621  0.00  0.00    +0.000 A 
ATOM      5  C   LIG    1        1.556  -6.596   2.098  0.00  0.00    +0.000 A 
ATOM      6  C   LIG    1        2.592  -6.341   1.218  0.00  0.00    +0.000 A 
ATOM      7  C   LIG    1        2.888  -5.040   0.858  0.00  0.00    +0.010 A 
ENDBRANCH   1   2
BRANCH   1   8
ATOM      8  O   LIG    1        1.277  -1.809   0.933  0.00  0.00    -0.370 OA
BRANCH   8   9
ATOM      9  C   LIG    1        1.317  -0.740  -0.015  0.00  0.00    +0.200 C 
BRANCH   9  11
ATOM     10  C   LIG    1       -0.016   1.306   0.009  0.00  0.00    +0.020 C 
ATOM     11  C   LIG    1        0.002  -0.004   0.002  0.00  0.00    -0.030 C 
ENDBRANCH   9  11
ENDBRANCH   8   9
ENDBRANCH   1   8
BRANCH   1  12
ATOM     12  C   LIG    1        3.420  -1.963   2.040  0.00  0.00    +0.050 C 
BRANCH  12  13
ATOM     13  C   LIG    1        3.844  -0.589   1.590  0.00  0.00    -0.050 C 
ATOM     14  C   LIG    1        3.656   0.444   2.373  0.00  0.00    +0.020 C 
ENDBRANCH  12  13
ENDBRANCH   1  12
TORSDOF 6
ENDMDL
MODEL      184
REMARK  Name = ZINC000255004075
REMARK                            x       y       z     vdW  Elec       q    Type
REMARK                         _______ _______ _______ _____ _____    ______ ____
ROOT
ATOM      1  C   LIG    1       -0.074   5.589   0.033  0.00  0.00    +0.310 C 
ATOM      2  N   LIG    1        1.046   6.256   0.021  0.00  0.00    -0.480 NA
ENDROOT
BRANCH   1   7
ATOM      3  F   LIG    1        0.002  -0.004   0.002  0.00  0.00    -0.140 F 
ATOM      4  C   LIG    1       -0.016   1.347   0.009  0.00  0.00    +0.120 A 
ATOM      5  C   LIG    1       -1.228   2.021   0.030  0.00  0.00    -0.020 A 
ATOM      6  C   LIG    1       -1.254   3.398   0.038  0.00  0.00    +0.080 A 
ATOM      7  C   LIG    1       -0.054   4.117   0.025  0.00  0.00    -0.090 A 
ATOM      8  C   LIG    1        1.165   3.432   0.004  0.00  0.00    +0.110 A 
ATOM      9  C   LIG    1        1.177   2.053   0.002  0.00  0.00    -0.020 A 
ENDBRANCH   1   7
BRANCH   2  10
ATOM     10  C   LIG    1        1.027   7.624   0.029  0.00  0.00    +0.080 A 
ATOM     11  C   LIG    1        0.147   8.319  -0.804  0.00  0.00    -0.030 A 
ATOM     12  C   LIG    1        0.134   9.698  -0.791  0.00  0.00    +0.020 A 
ATOM     13  C   LIG    1        0.990  10.393   0.044  0.00  0.00    +0.010 A 
ATOM     14  C   LIG    1        1.864   9.712   0.872  0.00  0.00    +0.020 A 
ATOM     15  C   LIG    1        1.884   8.332   0.874  0.00  0.00    +0.030 A 
ENDBRANCH   2  10
TORSDOF 2
ENDMDL
MODEL      185
REMARK  Name = ZINC000021990226
REMARK                            x       y       z     vdW  Elec       q    Type
REMARK                         _______ _______ _______ _____ _____    ______ ____
ROOT
ATOM      1  C   LIG    1        2.376  -2.548   0.887  0.00  0.00    +0.210 C 
ENDROOT
BRANCH   1   2
ATOM      2  C   LIG    1        2.499  -3.201   2.240  0.00  0.00    -0.120 A 
ATOM      3  C   LIG    1        1.392  -3.783   2.830  0.00  0.00    +0.040 A 
ATOM      4  C   LIG    1        1.504  -4.381   4.070  0.00  0.00    +0.000 A 
ATOM      5  C   LIG    1        2.724  -4.399   4.721  0.00  0.00    +0.000 A 
ATOM      6  C   LIG    1        3.831  -3.818   4.132  0.00  0.00    +0.000 A 
ATOM      7  C   LIG    1        3.719  -3.223   2.889  0.00  0.00    +0.010 A 
ENDBRANCH   1   2
BRANCH   1   8
ATOM      8  O   LIG    1        1.145  -1.826   0.816  0.00  0.00    -0.370 OA
BRANCH   8   9
ATOM      9  C   LIG    1        1.232  -0.481   1.289  0.00  0.00    +0.200 C 
BRANCH   9  11
ATOM     10  C   LIG    1       -0.607   0.948   2.024  0.00  0.00    +0.030 C 
ATOM     11  C   LIG    1       -0.087   0.214   1.071  0.00  0.00    -0.030 C 
ENDBRANCH   9  11
ENDBRANCH   8   9
ENDBRANCH   1   8
BRANCH   1  12
ATOM     12  C   LIG    1        2.401  -3.622  -0.202  0.00  0.00    +0.070 C 
BRANCH  12  13
ATOM     13  C   LIG    1        2.410  -2.964  -1.557  0.00  0.00    -0.040 C 
ATOM     14  C   LIG    1        3.355  -3.249  -2.418  0.00  0.00    +0.010 C 
ENDBRANCH  12  13
ENDBRANCH   1  12
TORSDOF 6
ENDMDL
MODEL      186
REMARK  Name = ZINC000095611679
REMARK                            x       y       z     vdW  Elec       q    Type
REMARK                         _______ _______ _______ _____ _____    ______ ____
ROOT
ATOM      1  C   LIG    1        1.453  -1.659  -1.217  0.00  0.00    -0.040 C 
ATOM      2  C   LIG    1        2.296  -1.343  -2.168  0.00  0.00    -0.050 C 
ENDROOT
BRANCH   1   3
ATOM      3  C   LIG    1        1.393  -0.832   0.042  0.00  0.00    +0.040 C 
ATOM      4  C   LIG    1        1.901  -1.663   1.222  0.00  0.00    +0.040 C 
BRANCH   3   6
ATOM      5  C   LIG    1       -0.338   0.862   0.351  0.00  0.00    +0.010 C 
ATOM      6  C   LIG    1       -0.030  -0.411   0.300  0.00  0.00    -0.030 C 
ENDBRANCH   3   6
ENDBRANCH   1   3
BRANCH   2   7
ATOM      7  C   LIG    1        3.323  -0.264  -1.938  0.00  0.00    +0.050 C 
BRANCH   7   8
ATOM      8  C   LIG    1        4.719  -0.817  -2.234  0.00  0.00    +0.010 C 
BRANCH   8   9
ATOM      9  C   LIG    1        5.761   0.279  -2.000  0.00  0.00    +0.000 C 
BRANCH   9  10
ATOM     10  C   LIG    1        7.157  -0.273  -2.296  0.00  0.00    -0.010 C 
ATOM     11  C   LIG    1        8.199   0.822  -2.062  0.00  0.00    +0.000 C 
ENDBRANCH   9  10
ENDBRANCH   8   9
ENDBRANCH   7   8
ENDBRANCH   2   7
TORSDOF 6
ENDMDL
MODEL      187
REMARK  Name = ZINC000005861001
REMARK                            x       y       z     vdW  Elec       q    Type
REMARK                         _______ _______ _______ _____ _____    ______ ____
ROOT
ATOM      1  C   LIG    1        0.869  -1.958  -0.381  0.00  0.00    +0.140 C 
ATOM      2  C   LIG    1        0.937  -3.066  -1.435  0.00  0.00    +0.030 C 
ENDROOT
BRANCH   1   4
ATOM      3  C   LIG    1       -0.742  -0.150  -0.692  0.00  0.00    +0.040 C 
ATOM      4  C   LIG    1       -0.527  -1.392  -0.337  0.00  0.00    -0.030 C 
ENDBRANCH   1   4
BRANCH   1   5
ATOM      5  O   LIG    1        1.793  -0.922  -0.718  0.00  0.00    -0.370 OA
BRANCH   5   6
ATOM      6  C   LIG    1        3.135  -1.377  -0.902  0.00  0.00    +0.150 C 
ATOM      7  C   LIG    1        4.054  -0.175  -1.132  0.00  0.00    +0.040 C 
ENDBRANCH   5   6
ENDBRANCH   1   5
BRANCH   1   8
ATOM      8  C   LIG    1        1.228  -2.536   0.989  0.00  0.00    +0.010 C 
BRANCH   8   9
ATOM      9  C   LIG    1        1.039  -1.461   2.061  0.00  0.00    +0.060 C 
BRANCH   9  10
ATOM     10  C   LIG    1        1.393  -2.029   3.411  0.00  0.00    -0.060 C 
ATOM     11  C   LIG    1        0.537  -1.952   4.400  0.00  0.00    -0.130 C 
ATOM     12  C   LIG    1        0.833  -2.637   5.709  0.00  0.00    +0.060 C 
ATOM     13  C   LIG    1       -0.745  -1.178   4.228  0.00  0.00    +0.080 C 
ENDBRANCH   9  10
ENDBRANCH   8   9
ENDBRANCH   1   8
TORSDOF 6
ENDMDL
MODEL      188
REMARK  Name = ZINC000195847132
REMARK                            x       y       z     vdW  Elec       q    Type
REMARK                         _______ _______ _______ _____ _____    ______ ____
ROOT
ATOM      1 SI   LIG    1       -1.324  -1.951  -1.435  0.00  0.00    +1.020 Si
ENDROOT
BRANCH   1   2
ATOM      2  C   LIG    1        0.106  -3.137  -1.302  0.00  0.00    -0.270 C 
ATOM      3  C   LIG    1       -0.008  -3.929   0.003  0.00  0.00    +0.010 C 
ENDBRANCH   1   2
BRANCH   1   4
ATOM      4  C   LIG    1       -1.186  -0.987  -3.023  0.00  0.00    -0.270 C 
ATOM      5  C   LIG    1       -2.361  -0.013  -3.132  0.00  0.00    +0.010 C 
ENDBRANCH   1   4
BRANCH   1   6
ATOM      6  C   LIG    1       -2.925  -2.904  -1.425  0.00  0.00    -0.270 C 
ATOM      7  C   LIG    1       -2.951  -3.870  -2.611  0.00  0.00    +0.010 C 
ENDBRANCH   1   6
BRANCH   1   8
ATOM      8  C   LIG    1       -1.293  -0.775   0.010  0.00  0.00    -0.220 C 
BRANCH   8  10
ATOM      9  C   LIG    1       -0.016   1.306   0.009  0.00  0.00    -0.020 C 
ATOM     10  C   LIG    1        0.002  -0.004   0.002  0.00  0.00    -0.030 C 
ENDBRANCH   8  10
ENDBRANCH   1   8
TORSDOF 5
ENDMDL
MODEL      189
REMARK  Name = ZINC000071795086
REMARK                            x       y       z     vdW  Elec       q    Type
REMARK                         _______ _______ _______ _____ _____    ______ ____
ROOT
ATOM      1  C   LIG    1        1.369  -1.702   1.144  0.00  0.00    -0.060 A 
ATOM      2  C   LIG    1        1.966  -1.324   2.331  0.00  0.00    +0.040 A 
ATOM      3  C   LIG    1        2.014  -2.208   3.394  0.00  0.00    -0.030 A 
ATOM      4  C   LIG    1        1.463  -3.470   3.269  0.00  0.00    +0.040 A 
ATOM      5  C   LIG    1        0.866  -3.849   2.082  0.00  0.00    +0.050 A 
ATOM      6 CL   LIG    1        2.763  -1.732   4.886  0.00  0.00    -0.060 Cl
ATOM      7  C   LIG    1        0.813  -2.964   1.020  0.00  0.00    -0.030 A 
ATOM      8 CL   LIG    1        0.063  -3.440  -0.471  0.00  0.00    -0.060 Cl
ENDROOT
BRANCH   1   9
ATOM      9  C   LIG    1        1.317  -0.740  -0.015  0.00  0.00    +0.110 C 
BRANCH   9  11
ATOM     10  C   LIG    1       -0.016   1.306   0.009  0.00  0.00    +0.020 C 
ATOM     11  C   LIG    1        0.002  -0.004   0.002  0.00  0.00    -0.040 C 
ENDBRANCH   9  11
ENDBRANCH   1   9
TORSDOF 2
ENDMDL
MODEL      190
REMARK  Name = ZINC000195892511
REMARK                            x       y       z     vdW  Elec       q    Type
REMARK                         _______ _______ _______ _____ _____    ______ ____
ROOT
ATOM      1 SI   LIG    1       -1.324  -1.951  -1.435  0.00  0.00    +1.030 Si
ATOM      2  C   LIG    1        0.106  -3.137  -1.302  0.00  0.00    -0.240 C 
ATOM      3  C   LIG    1       -1.186  -0.987  -3.023  0.00  0.00    -0.240 C 
ENDROOT
BRANCH   1   4
ATOM      4  C   LIG    1       -2.925  -2.904  -1.425  0.00  0.00    -0.360 C 
ATOM      5  C   LIG    1       -3.039  -3.696  -0.120  0.00  0.00    +0.020 C 
ATOM      6  C   LIG    1       -2.951  -3.870  -2.611  0.00  0.00    +0.020 C 
ATOM      7  C   LIG    1       -4.100  -1.930  -1.534  0.00  0.00    +0.010 C 
ENDBRANCH   1   4
BRANCH   1   8
ATOM      8  C   LIG    1       -1.293  -0.775   0.010  0.00  0.00    -0.220 C 
BRANCH   8  10
ATOM      9  C   LIG    1       -0.016   1.306   0.009  0.00  0.00    -0.020 C 
ATOM     10  C   LIG    1        0.002  -0.004   0.002  0.00  0.00    -0.030 C 
ENDBRANCH   8  10
ENDBRANCH   1   8
TORSDOF 3
ENDMDL
MODEL      191
REMARK  Name = ZINC000063457959
REMARK                            x       y       z     vdW  Elec       q    Type
REMARK                         _______ _______ _______ _____ _____    ______ ____
ROOT
ATOM      1  C   LIG    1        1.369  -1.702   1.144  0.00  0.00    -0.080 A 
ATOM      2  C   LIG    1        1.873  -1.290   2.363  0.00  0.00    +0.010 A 
ATOM      3  C   LIG    1        1.920  -2.173   3.426  0.00  0.00    +0.000 A 
ATOM      4  C   LIG    1        1.463  -3.468   3.269  0.00  0.00    -0.080 A 
ATOM      5  C   LIG    1        0.958  -3.880   2.050  0.00  0.00    +0.000 A 
ATOM      6  C   LIG    1        0.907  -2.996   0.988  0.00  0.00    +0.010 A 
ENDROOT
BRANCH   1   7
ATOM      7  C   LIG    1        1.317  -0.740  -0.015  0.00  0.00    +0.100 C 
BRANCH   7   9
ATOM      8  C   LIG    1       -0.016   1.306   0.009  0.00  0.00    +0.010 C 
ATOM      9  C   LIG    1        0.002  -0.004   0.002  0.00  0.00    -0.040 C 
ENDBRANCH   7   9
ENDBRANCH   1   7
BRANCH   4  10
ATOM     10  C   LIG    1        1.515  -4.431   4.427  0.00  0.00    +0.060 C 
BRANCH  10  11
ATOM     11  C   LIG    1        0.213  -4.341   5.224  0.00  0.00    +0.010 C 
BRANCH  11  12
ATOM     12  C   LIG    1        0.266  -5.318   6.400  0.00  0.00    -0.010 C 
ATOM     13  C   LIG    1       -1.037  -5.228   7.198  0.00  0.00    +0.000 C 
ENDBRANCH  11  12
ENDBRANCH  10  11
ENDBRANCH   4  10
TORSDOF 5
ENDMDL
MODEL      192
REMARK  Name = ZINC000071795116
REMARK                            x       y       z     vdW  Elec       q    Type
REMARK                         _______ _______ _______ _____ _____    ______ ____
ROOT
ATOM      1  C   LIG    1       -1.318  -1.726  -1.159  0.00  0.00    -0.060 A 
ATOM      2  C   LIG    1       -1.926  -1.351  -2.342  0.00  0.00    +0.050 A 
ATOM      3  C   LIG    1       -1.950  -2.223  -3.414  0.00  0.00    +0.040 A 
ATOM      4  C   LIG    1       -1.366  -3.472  -3.304  0.00  0.00    -0.030 A 
ATOM      5  C   LIG    1       -0.757  -3.848  -2.120  0.00  0.00    +0.050 A 
ATOM      6 CL   LIG    1       -1.396  -4.566  -4.651  0.00  0.00    -0.060 Cl
ATOM      7  C   LIG    1       -0.729  -2.973  -1.049  0.00  0.00    -0.020 A 
ATOM      8 CL   LIG    1        0.036  -3.445   0.437  0.00  0.00    -0.050 Cl
ENDROOT
BRANCH   1   9
ATOM      9  C   LIG    1       -1.293  -0.775   0.010  0.00  0.00    +0.110 C 
BRANCH   9  11
ATOM     10  C   LIG    1       -0.016   1.306   0.009  0.00  0.00    +0.010 C 
ATOM     11  C   LIG    1        0.002  -0.004   0.002  0.00  0.00    -0.040 C 
ENDBRANCH   9  11
ENDBRANCH   1   9
TORSDOF 2
ENDMDL
MODEL      193
REMARK  Name = ZINC000063457973
REMARK                            x       y       z     vdW  Elec       q    Type
REMARK                         _______ _______ _______ _____ _____    ______ ____
ROOT
ATOM      1  C   LIG    1        1.369  -1.702   1.144  0.00  0.00    -0.060 A 
ATOM      2  C   LIG    1        1.873  -1.290   2.363  0.00  0.00    +0.040 A 
ATOM      3  C   LIG    1        1.921  -2.172   3.426  0.00  0.00    +0.040 A 
ATOM      4  C   LIG    1        1.464  -3.468   3.271  0.00  0.00    -0.040 A 
ATOM      5  C   LIG    1        0.960  -3.882   2.049  0.00  0.00    -0.030 A 
ATOM      6 CL   LIG    1        0.386  -5.508   1.852  0.00  0.00    -0.050 Cl
ATOM      7 CL   LIG    1        1.524  -4.576   4.606  0.00  0.00    -0.050 Cl
ATOM      8  C   LIG    1        0.907  -2.996   0.988  0.00  0.00    +0.040 A 
ENDROOT
BRANCH   1   9
ATOM      9  C   LIG    1        1.317  -0.740  -0.015  0.00  0.00    +0.110 C 
BRANCH   9  11
ATOM     10  C   LIG    1       -0.016   1.306   0.009  0.00  0.00    +0.020 C 
ATOM     11  C   LIG    1        0.002  -0.004   0.002  0.00  0.00    -0.040 C 
ENDBRANCH   9  11
ENDBRANCH   1   9
TORSDOF 2
ENDMDL
MODEL      194
REMARK  Name = ZINC000063457974
REMARK                            x       y       z     vdW  Elec       q    Type
REMARK                         _______ _______ _______ _____ _____    ______ ____
ROOT
ATOM      1  C   LIG    1        1.369  -1.702   1.144  0.00  0.00    -0.050 A 
ATOM      2  C   LIG    1        1.873  -1.290   2.363  0.00  0.00    +0.040 A 
ATOM      3  C   LIG    1        1.921  -2.173   3.427  0.00  0.00    -0.020 A 
ATOM      4  C   LIG    1        1.464  -3.470   3.270  0.00  0.00    +0.030 A 
ATOM      5  C   LIG    1        0.960  -3.882   2.050  0.00  0.00    -0.020 A 
ATOM      6 CL   LIG    1        0.386  -5.508   1.852  0.00  0.00    -0.050 Cl
ATOM      7 CL   LIG    1        2.554  -1.655   4.958  0.00  0.00    -0.050 Cl
ATOM      8  C   LIG    1        0.907  -2.996   0.988  0.00  0.00    +0.040 A 
ENDROOT
BRANCH   1   9
ATOM      9  C   LIG    1        1.317  -0.740  -0.015  0.00  0.00    +0.110 C 
BRANCH   9  11
ATOM     10  C   LIG    1       -0.016   1.306   0.009  0.00  0.00    +0.020 C 
ATOM     11  C   LIG    1        0.002  -0.004   0.002  0.00  0.00    -0.050 C 
ENDBRANCH   9  11
ENDBRANCH   1   9
TORSDOF 2
ENDMDL
MODEL      195
REMARK  Name = ZINC000063457960
REMARK                            x       y       z     vdW  Elec       q    Type
REMARK                         _______ _______ _______ _____ _____    ______ ____
ROOT
ATOM      1  C   LIG    1       -1.318  -1.726  -1.159  0.00  0.00    -0.080 A 
ATOM      2  C   LIG    1       -1.833  -1.314  -2.373  0.00  0.00    +0.010 A 
ATOM      3  C   LIG    1       -1.857  -2.187  -3.446  0.00  0.00    +0.010 A 
ATOM      4  C   LIG    1       -1.365  -3.471  -3.303  0.00  0.00    -0.070 A 
ATOM      5  C   LIG    1       -0.849  -3.882  -2.088  0.00  0.00    +0.010 A 
ATOM      6  C   LIG    1       -0.822  -3.009  -1.017  0.00  0.00    +0.000 A 
ENDROOT
BRANCH   4   7
ATOM      7  C   LIG    1       -1.391  -4.422  -4.472  0.00  0.00    -0.030 C 
ATOM      8  C   LIG    1       -2.837  -4.628  -4.929  0.00  0.00    +0.040 C 
ATOM      9  C   LIG    1       -0.793  -5.765  -4.049  0.00  0.00    +0.030 C 
ATOM     10  C   LIG    1       -0.571  -3.837  -5.623  0.00  0.00    +0.040 C 
ENDBRANCH   4   7
BRANCH   1  11
ATOM     11  C   LIG    1       -1.293  -0.775   0.010  0.00  0.00    +0.100 C 
BRANCH  11  13
ATOM     12  C   LIG    1       -0.016   1.306   0.009  0.00  0.00    +0.010 C 
ATOM     13  C   LIG    1        0.002  -0.004   0.002  0.00  0.00    -0.040 C 
ENDBRANCH  11  13
ENDBRANCH   1  11
TORSDOF 3
ENDMDL
MODEL      196
REMARK  Name = ZINC000071795191
REMARK                            x       y       z     vdW  Elec       q    Type
REMARK                         _______ _______ _______ _____ _____    ______ ____
ROOT
ATOM      1  C   LIG    1       -1.318  -1.726  -1.159  0.00  0.00    -0.080 A 
ATOM      2  C   LIG    1       -1.833  -1.314  -2.373  0.00  0.00    -0.080 A 
ATOM      3  C   LIG    1       -1.856  -2.187  -3.446  0.00  0.00    -0.090 A 
ATOM      4  C   LIG    1       -1.365  -3.470  -3.303  0.00  0.00    -0.080 A 
ATOM      5  C   LIG    1       -0.850  -3.882  -2.088  0.00  0.00    -0.090 A 
ATOM      6  C   LIG    1       -0.313  -5.282  -1.933  0.00  0.00    +0.090 C 
ATOM      7  C   LIG    1       -1.389  -4.421  -4.472  0.00  0.00    +0.090 C 
ATOM      8  C   LIG    1       -2.417  -1.737  -4.770  0.00  0.00    +0.090 C 
ATOM      9  C   LIG    1       -2.369   0.086  -2.529  0.00  0.00    +0.090 C 
ATOM     10  C   LIG    1       -0.822  -3.009  -1.017  0.00  0.00    -0.080 A 
ATOM     11  C   LIG    1       -0.260  -3.458   0.307  0.00  0.00    +0.090 C 
ENDROOT
BRANCH   1  12
ATOM     12  C   LIG    1       -1.293  -0.775   0.010  0.00  0.00    +0.100 C 
BRANCH  12  14
ATOM     13  C   LIG    1       -0.016   1.306   0.009  0.00  0.00    +0.010 C 
ATOM     14  C   LIG    1        0.002  -0.004   0.002  0.00  0.00    -0.030 C 
ENDBRANCH  12  14
ENDBRANCH   1  12
TORSDOF 2
ENDMDL
MODEL      197
REMARK  Name = ZINC000195761274
REMARK                            x       y       z     vdW  Elec       q    Type
REMARK                         _______ _______ _______ _____ _____    ______ ____
ROOT
ATOM      1 SI   LIG    1       -1.324  -1.951  -1.435  0.00  0.00    +1.040 Si
ATOM      2  C   LIG    1       -2.925  -2.904  -1.425  0.00  0.00    -0.240 C 
ENDROOT
BRANCH   1   3
ATOM      3  C   LIG    1       -1.293  -0.775   0.010  0.00  0.00    -0.220 C 
BRANCH   3   5
ATOM      4  C   LIG    1       -0.016   1.306   0.009  0.00  0.00    -0.020 C 
ATOM      5  C   LIG    1        0.002  -0.004   0.002  0.00  0.00    -0.030 C 
ENDBRANCH   3   5
ENDBRANCH   1   3
BRANCH   1   6
ATOM      6  C   LIG    1        0.106  -3.137  -1.302  0.00  0.00    -0.220 C 
BRANCH   6   7
ATOM      7  C   LIG    1       -0.006  -3.917  -0.017  0.00  0.00    -0.030 C 
ATOM      8  C   LIG    1       -0.006  -5.227  -0.044  0.00  0.00    -0.010 C 
ENDBRANCH   6   7
ENDBRANCH   1   6
BRANCH   1   9
ATOM      9  C   LIG    1       -1.186  -0.987  -3.023  0.00  0.00    -0.220 C 
BRANCH   9  10
ATOM     10  C   LIG    1       -2.343  -0.027  -3.130  0.00  0.00    -0.030 C 
ATOM     11  C   LIG    1       -2.119   1.251  -3.311  0.00  0.00    -0.020 C 
ENDBRANCH   9  10
ENDBRANCH   1   9
TORSDOF 6
ENDMDL
MODEL      198
REMARK  Name = ZINC000071795077
REMARK                            x       y       z     vdW  Elec       q    Type
REMARK                         _______ _______ _______ _____ _____    ______ ____
ROOT
ATOM      1  C   LIG    1        1.369  -1.702   1.144  0.00  0.00    -0.080 A 
ATOM      2  C   LIG    1        1.873  -1.290   2.363  0.00  0.00    +0.010 A 
ATOM      3  C   LIG    1        1.920  -2.173   3.426  0.00  0.00    +0.000 A 
ATOM      4  C   LIG    1        1.463  -3.468   3.269  0.00  0.00    -0.080 A 
ATOM      5  C   LIG    1        0.958  -3.880   2.050  0.00  0.00    +0.010 A 
ATOM      6  C   LIG    1        0.907  -2.996   0.988  0.00  0.00    +0.010 A 
ENDROOT
BRANCH   4   7
ATOM      7  C   LIG    1        1.515  -4.431   4.427  0.00  0.00    +0.020 C 
ATOM      8  C   LIG    1        2.387  -5.632   4.053  0.00  0.00    +0.040 C 
ATOM      9  C   LIG    1        0.100  -4.911   4.756  0.00  0.00    +0.040 C 
ENDBRANCH   4   7
BRANCH   1  10
ATOM     10  C   LIG    1        1.317  -0.740  -0.015  0.00  0.00    +0.100 C 
BRANCH  10  12
ATOM     11  C   LIG    1       -0.016   1.306   0.009  0.00  0.00    +0.010 C 
ATOM     12  C   LIG    1        0.002  -0.004   0.002  0.00  0.00    -0.040 C 
ENDBRANCH  10  12
ENDBRANCH   1  10
TORSDOF 3
ENDMDL
MODEL      199
REMARK  Name = ZINC000071795180
REMARK                            x       y       z     vdW  Elec       q    Type
REMARK                         _______ _______ _______ _____ _____    ______ ____
ROOT
ATOM      1  C   LIG    1        1.369  -1.702   1.144  0.00  0.00    -0.070 A 
ATOM      2  C   LIG    1        1.873  -1.290   2.363  0.00  0.00    -0.080 A 
ATOM      3  C   LIG    1        1.920  -2.173   3.426  0.00  0.00    -0.090 A 
ATOM      4  C   LIG    1        1.463  -3.468   3.269  0.00  0.00    +0.000 A 
ATOM      5  C   LIG    1        0.959  -3.881   2.049  0.00  0.00    -0.090 A 
ATOM      6  C   LIG    1        0.462  -5.293   1.878  0.00  0.00    +0.080 C 
ATOM      7  C   LIG    1        2.468  -1.724   4.755  0.00  0.00    +0.080 C 
ATOM      8  C   LIG    1        2.370   0.122   2.534  0.00  0.00    +0.090 C 
ATOM      9  C   LIG    1        0.907  -2.996   0.988  0.00  0.00    -0.090 A 
ATOM     10  C   LIG    1        0.358  -3.446  -0.341  0.00  0.00    +0.090 C 
ENDROOT
BRANCH   1  11
ATOM     11  C   LIG    1        1.317  -0.740  -0.015  0.00  0.00    +0.100 C 
BRANCH  11  13
ATOM     12  C   LIG    1       -0.016   1.306   0.009  0.00  0.00    +0.010 C 
ATOM     13  C   LIG    1        0.002  -0.004   0.002  0.00  0.00    -0.030 C 
ENDBRANCH  11  13
ENDBRANCH   1  11
TORSDOF 2
ENDMDL
MODEL      200
REMARK  Name = ZINC000001577326
REMARK                            x       y       z     vdW  Elec       q    Type
REMARK                         _______ _______ _______ _____ _____    ______ ____
ROOT
ATOM      1  C   LIG    1        1.476  -4.051  -2.532  0.00  0.00    +0.030 C 
ENDROOT
BRANCH   1   2
ATOM      2  C   LIG    1        1.455  -2.521  -2.524  0.00  0.00    +0.000 C 
BRANCH   2   3
ATOM      3  C   LIG    1        0.739  -2.027  -1.265  0.00  0.00    +0.000 C 
BRANCH   3   4
ATOM      4  C   LIG    1        0.718  -0.497  -1.257  0.00  0.00    +0.000 C 
BRANCH   4   6
ATOM      5  C   LIG    1       -0.019   1.526   0.010  0.00  0.00    +0.000 C 
ATOM      6  C   LIG    1        0.002  -0.004   0.002  0.00  0.00    -0.010 C 
ENDBRANCH   4   6
ENDBRANCH   3   4
ENDBRANCH   2   3
ENDBRANCH   1   2
BRANCH   1   7
ATOM      7  C   LIG    1        2.192  -4.544  -3.791  0.00  0.00    +0.030 C 
BRANCH   7   8
ATOM      8  C   LIG    1        2.212  -6.051  -3.800  0.00  0.00    +0.360 C 
ATOM      9  O   LIG    1        1.706  -6.667  -2.892  0.00  0.00    -0.450 OA
BRANCH   8  10
ATOM     10  C   LIG    1        2.864  -6.789  -4.940  0.00  0.00    -0.060 C 
ATOM     11  C   LIG    1        2.164  -8.135  -5.143  0.00  0.00    +0.040 C 
ATOM     12  C   LIG    1        4.341  -7.026  -4.617  0.00  0.00    +0.050 C 
ENDBRANCH   8  10
ENDBRANCH   7   8
ENDBRANCH   1   7
TORSDOF 7
ENDMDL
MODEL      201
REMARK  Name = ZINC000004255841
REMARK                            x       y       z     vdW  Elec       q    Type
REMARK                         _______ _______ _______ _____ _____    ______ ____
ROOT
ATOM      1  C   LIG    1       -1.318  -1.726  -1.159  0.00  0.00    -0.080 A 
ATOM      2  C   LIG    1       -1.834  -1.312  -2.373  0.00  0.00    +0.030 A 
ATOM      3  C   LIG    1       -1.859  -2.181  -3.447  0.00  0.00    +0.030 A 
ATOM      4  C   LIG    1       -1.365  -3.472  -3.305  0.00  0.00    -0.090 A 
ATOM      5  C   LIG    1       -0.847  -3.884  -2.083  0.00  0.00    -0.010 A 
ATOM      6  C   LIG    1       -0.821  -3.009  -1.015  0.00  0.00    +0.030 A 
ENDROOT
BRANCH   1   7
ATOM      7  C   LIG    1       -1.293  -0.775   0.010  0.00  0.00    +0.100 C 
BRANCH   7   9
ATOM      8  C   LIG    1       -0.016   1.306   0.009  0.00  0.00    +0.010 C 
ATOM      9  C   LIG    1        0.002  -0.004   0.002  0.00  0.00    -0.040 C 
ENDBRANCH   7   9
ENDBRANCH   1   7
BRANCH   4  10
ATOM     10  S   LIG    1       -1.394  -4.584  -4.672  0.00  0.00    -0.120 S 
BRANCH  10  11
ATOM     11  C   LIG    1       -0.658  -6.093  -3.986  0.00  0.00    +0.070 C 
ATOM     12  C   LIG    1       -0.610  -7.174  -5.068  0.00  0.00    +0.080 C 
ENDBRANCH  10  11
ENDBRANCH   4  10
TORSDOF 4
ENDMDL
MODEL      202
REMARK  Name = ZINC000071795292
REMARK                            x       y       z     vdW  Elec       q    Type
REMARK                         _______ _______ _______ _____ _____    ______ ____
ROOT
ATOM      1  C   LIG    1       -1.318  -1.726  -1.159  0.00  0.00    -0.070 A 
ATOM      2  C   LIG    1       -1.840  -1.300  -2.378  0.00  0.00    +0.010 A 
ATOM      3  C   LIG    1       -1.878  -2.134  -3.454  0.00  0.00    +0.030 A 
ATOM      4  C   LIG    1       -1.385  -3.444  -3.335  0.00  0.00    -0.060 A 
ATOM      5  C   LIG    1       -1.406  -4.334  -4.423  0.00  0.00    +0.020 A 
ATOM      6  C   LIG    1       -0.920  -5.595  -4.272  0.00  0.00    +0.000 A 
ATOM      7  C   LIG    1       -0.398  -6.021  -3.051  0.00  0.00    +0.000 A 
ATOM      8  C   LIG    1       -0.361  -5.188  -1.976  0.00  0.00    +0.020 A 
ATOM      9  C   LIG    1       -0.854  -3.878  -2.094  0.00  0.00    -0.050 A 
ATOM     10  C   LIG    1       -0.827  -2.987  -1.008  0.00  0.00    +0.020 A 
ENDROOT
BRANCH   1  11
ATOM     11  C   LIG    1       -1.293  -0.775   0.010  0.00  0.00    +0.100 C 
BRANCH  11  13
ATOM     12  C   LIG    1       -0.016   1.306   0.009  0.00  0.00    +0.010 C 
ATOM     13  C   LIG    1        0.002  -0.004   0.002  0.00  0.00    -0.040 C 
ENDBRANCH  11  13
ENDBRANCH   1  11
TORSDOF 2
ENDMDL
MODEL      203
REMARK  Name = ZINC000071795112
REMARK                            x       y       z     vdW  Elec       q    Type
REMARK                         _______ _______ _______ _____ _____    ______ ____
ROOT
ATOM      1  C   LIG    1       -1.318  -1.726  -1.159  0.00  0.00    -0.060 A 
ATOM      2  C   LIG    1       -1.926  -1.351  -2.342  0.00  0.00    +0.040 A 
ATOM      3  C   LIG    1       -1.949  -2.222  -3.415  0.00  0.00    +0.040 A 
ATOM      4  C   LIG    1       -1.366  -3.470  -3.305  0.00  0.00    +0.040 A 
ATOM      5  C   LIG    1       -0.757  -3.848  -2.122  0.00  0.00    -0.030 A 
ATOM      6 CL   LIG    1       -0.024  -5.415  -1.984  0.00  0.00    -0.050 Cl
ATOM      7  C   LIG    1       -0.729  -2.973  -1.049  0.00  0.00    -0.030 A 
ATOM      8 CL   LIG    1        0.035  -3.445   0.437  0.00  0.00    -0.040 Cl
ENDROOT
BRANCH   1   9
ATOM      9  C   LIG    1       -1.293  -0.775   0.010  0.00  0.00    +0.120 C 
BRANCH   9  11
ATOM     10  C   LIG    1       -0.016   1.306   0.009  0.00  0.00    +0.010 C 
ATOM     11  C   LIG    1        0.002  -0.004   0.002  0.00  0.00    -0.040 C 
ENDBRANCH   9  11
ENDBRANCH   1   9
TORSDOF 2
ENDMDL
MODEL      204
REMARK  Name = ZINC000002036107
REMARK                            x       y       z     vdW  Elec       q    Type
REMARK                         _______ _______ _______ _____ _____    ______ ____
ROOT
ATOM      1  C   LIG    1       -1.318  -1.726  -1.159  0.00  0.00    -0.070 A 
ATOM      2  C   LIG    1       -0.726  -2.995  -1.049  0.00  0.00    -0.050 A 
ATOM      3  C   LIG    1       -0.100  -3.409   0.139  0.00  0.00    +0.020 A 
ATOM      4  C   LIG    1        0.463  -4.646   0.208  0.00  0.00    +0.000 A 
ATOM      5  C   LIG    1        0.430  -5.512  -0.883  0.00  0.00    +0.000 A 
ATOM      6  C   LIG    1       -0.167  -5.146  -2.050  0.00  0.00    +0.020 A 
ATOM      7  C   LIG    1       -0.760  -3.876  -2.160  0.00  0.00    -0.050 A 
ATOM      8  C   LIG    1       -1.385  -3.463  -3.348  0.00  0.00    +0.020 A 
ATOM      9  C   LIG    1       -1.950  -2.226  -3.417  0.00  0.00    +0.010 A 
ATOM     10  C   LIG    1       -1.921  -1.362  -2.324  0.00  0.00    +0.010 A 
ENDROOT
BRANCH   1  11
ATOM     11  C   LIG    1       -1.293  -0.775   0.010  0.00  0.00    +0.100 C 
BRANCH  11  13
ATOM     12  C   LIG    1       -0.016   1.306   0.009  0.00  0.00    +0.010 C 
ATOM     13  C   LIG    1        0.002  -0.004   0.002  0.00  0.00    -0.040 C 
ENDBRANCH  11  13
ENDBRANCH   1  11
TORSDOF 2
ENDMDL
MODEL      205
REMARK  Name = ZINC000059673929
REMARK                            x       y       z     vdW  Elec       q    Type
REMARK                         _______ _______ _______ _____ _____    ______ ____
ROOT
ATOM      1  C   LIG    1        1.369  -1.702   1.144  0.00  0.00    -0.080 A 
ATOM      2  C   LIG    1        1.966  -1.324   2.331  0.00  0.00    +0.010 A 
ATOM      3  C   LIG    1        2.014  -2.207   3.394  0.00  0.00    +0.000 A 
ATOM      4  C   LIG    1        1.463  -3.468   3.269  0.00  0.00    +0.000 A 
ATOM      5  C   LIG    1        0.865  -3.847   2.081  0.00  0.00    +0.010 A 
ATOM      6  C   LIG    1        0.814  -2.963   1.020  0.00  0.00    -0.070 A 
ENDROOT
BRANCH   6   7
ATOM      7  C   LIG    1        0.162  -3.375  -0.274  0.00  0.00    +0.020 C 
ATOM      8  C   LIG    1       -1.305  -3.729  -0.016  0.00  0.00    +0.030 C 
ATOM      9  C   LIG    1        0.887  -4.595  -0.844  0.00  0.00    +0.030 C 
ENDBRANCH   6   7
BRANCH   1  10
ATOM     10  C   LIG    1        1.317  -0.740  -0.015  0.00  0.00    +0.110 C 
BRANCH  10  12
ATOM     11  C   LIG    1       -0.016   1.306   0.009  0.00  0.00    +0.010 C 
ATOM     12  C   LIG    1        0.002  -0.004   0.002  0.00  0.00    -0.040 C 
ENDBRANCH  10  12
ENDBRANCH   1  10
TORSDOF 3
ENDMDL
MODEL      206
REMARK  Name = ZINC000001665025
REMARK                            x       y       z     vdW  Elec       q    Type
REMARK                         _______ _______ _______ _____ _____    ______ ____
ROOT
ATOM      1  C   LIG    1        2.071  -4.304  -0.041  0.00  0.00    +0.030 C 
ENDROOT
BRANCH   1   2
ATOM      2  C   LIG    1        2.409  -2.812  -0.036  0.00  0.00    +0.110 C 
BRANCH   2   3
ATOM      3  C   LIG    1        1.134  -2.008  -0.020  0.00  0.00    +0.460 C 
ATOM      4  O   LIG    1        0.065  -2.571  -0.012  0.00  0.00    -0.490 OA
BRANCH   3   5
ATOM      5  O   LIG    1        1.186  -0.666  -0.013  0.00  0.00    -0.290 OA
BRANCH   5   7
ATOM      6  C   LIG    1       -0.016   1.313   0.009  0.00  0.00    +0.030 C 
ATOM      7  C   LIG    1        0.002  -0.004   0.002  0.00  0.00    +0.140 C 
ENDBRANCH   5   7
ENDBRANCH   3   5
ENDBRANCH   2   3
ENDBRANCH   1   2
BRANCH   1   8
ATOM      8  C   LIG    1        3.366  -5.120  -0.058  0.00  0.00    +0.020 C 
BRANCH   8   9
ATOM      9  C   LIG    1        3.028  -6.612  -0.062  0.00  0.00    +0.000 C 
BRANCH   9  10
ATOM     10  C   LIG    1        4.322  -7.428  -0.079  0.00  0.00    +0.000 C 
BRANCH  10  11
ATOM     11  C   LIG    1        3.985  -8.920  -0.084  0.00  0.00    +0.000 C 
BRANCH  11  12
ATOM     12  C   LIG    1        5.279  -9.736  -0.101  0.00  0.00    +0.000 C 
BRANCH  12  13
ATOM     13  C   LIG    1        4.941 -11.228  -0.105  0.00  0.00    -0.010 C 
ATOM     14  C   LIG    1        6.236 -12.044  -0.122  0.00  0.00    +0.000 C 
ENDBRANCH  12  13
ENDBRANCH  11  12
ENDBRANCH  10  11
ENDBRANCH   9  10
ENDBRANCH   8   9
ENDBRANCH   1   8
TORSDOF 10
ENDMDL
MODEL      207
REMARK  Name = ZINC000002037487
REMARK                            x       y       z     vdW  Elec       q    Type
REMARK                         _______ _______ _______ _____ _____    ______ ____
ROOT
ATOM      1  C   LIG    1       -1.350  -1.663   1.255  0.00  0.00    +0.010 C 
ENDROOT
BRANCH   1   2
ATOM      2  C   LIG    1       -1.293  -0.775   0.010  0.00  0.00    +0.000 C 
ATOM      3  C   LIG    1       -1.374  -1.649  -1.243  0.00  0.00    +0.020 C 
BRANCH   2   5
ATOM      4  C   LIG    1       -0.016   1.306   0.009  0.00  0.00    +0.010 C 
ATOM      5  C   LIG    1        0.002  -0.004   0.002  0.00  0.00    -0.040 C 
ENDBRANCH   2   5
ENDBRANCH   1   2
BRANCH   1   6
ATOM      6  C   LIG    1       -2.715  -2.350   1.329  0.00  0.00    +0.010 C 
BRANCH   6   7
ATOM      7  C   LIG    1       -2.772  -3.238   2.574  0.00  0.00    +0.000 C 
BRANCH   7   8
ATOM      8  C   LIG    1       -4.136  -3.926   2.648  0.00  0.00    -0.030 C 
ATOM      9  C   LIG    1       -4.240  -4.714   3.955  0.00  0.00    +0.000 C 
ATOM     10  C   LIG    1       -4.291  -4.881   1.463  0.00  0.00    +0.010 C 
ENDBRANCH   7   8
ENDBRANCH   6   7
ENDBRANCH   1   6
TORSDOF 5
ENDMDL
MODEL      208
REMARK  Name = ZINC000002038291
REMARK                            x       y       z     vdW  Elec       q    Type
REMARK                         _______ _______ _______ _____ _____    ______ ____
ROOT
ATOM      1  C   LIG    1        1.952  -2.032  -0.631  0.00  0.00    +0.010 C 
ENDROOT
BRANCH   1   2
ATOM      2  C   LIG    1        2.185  -1.495   0.783  0.00  0.00    +0.000 C 
ATOM      3  C   LIG    1        2.405  -2.665   1.743  0.00  0.00    +0.020 C 
BRANCH   2   5
ATOM      4  C   LIG    1        1.108   0.563   1.537  0.00  0.00    +0.010 C 
ATOM      5  C   LIG    1        0.981  -0.703   1.224  0.00  0.00    -0.040 C 
ENDBRANCH   2   5
ENDBRANCH   1   2
BRANCH   1   6
ATOM      6  C   LIG    1        3.221  -2.729  -1.127  0.00  0.00    +0.040 C 
BRANCH   6   7
ATOM      7  C   LIG    1        2.991  -3.258  -2.519  0.00  0.00    -0.060 C 
ATOM      8  C   LIG    1        3.760  -2.865  -3.504  0.00  0.00    -0.130 C 
ATOM      9  C   LIG    1        3.618  -3.491  -4.867  0.00  0.00    +0.070 C 
ATOM     10  C   LIG    1        4.787  -1.786  -3.274  0.00  0.00    +0.080 C 
ENDBRANCH   6   7
ENDBRANCH   1   6
TORSDOF 4
ENDMDL
MODEL      209
REMARK  Name = ZINC000001718851
REMARK                            x       y       z     vdW  Elec       q    Type
REMARK                         _______ _______ _______ _____ _____    ______ ____
ROOT
ATOM      1  C   LIG    1       -1.293  -0.775   0.010  0.00  0.00    +0.010 C 
ATOM      2  C   LIG    1       -1.350  -1.663   1.255  0.00  0.00    +0.010 C 
ATOM      3  C   LIG    1       -2.664  -2.446   1.264  0.00  0.00    +0.020 C 
ATOM      4  C   LIG    1       -2.745  -3.320   0.010  0.00  0.00    +0.020 C 
ATOM      5  C   LIG    1       -2.688  -2.432  -1.235  0.00  0.00    +0.020 C 
ATOM      6  C   LIG    1       -1.374  -1.649  -1.243  0.00  0.00    +0.040 C 
ENDROOT
BRANCH   1   8
ATOM      7  C   LIG    1       -0.016   1.306   0.009  0.00  0.00    +0.010 C 
ATOM      8  C   LIG    1        0.002  -0.004   0.002  0.00  0.00    -0.040 C 
ENDBRANCH   1   8
BRANCH   5   9
ATOM      9  C   LIG    1       -2.768  -3.293  -2.469  0.00  0.00    -0.030 C 
ATOM     10  C   LIG    1       -3.749  -3.127  -3.321  0.00  0.00    +0.000 C 
ENDBRANCH   5   9
BRANCH   4  11
ATOM     11  C   LIG    1       -4.040  -4.091   0.019  0.00  0.00    -0.030 C 
ATOM     12  C   LIG    1       -4.022  -5.401   0.011  0.00  0.00    +0.000 C 
ENDBRANCH   4  11
TORSDOF 3
ENDMDL
MODEL      210
REMARK  Name = ZINC000002023839
REMARK                            x       y       z     vdW  Elec       q    Type
REMARK                         _______ _______ _______ _____ _____    ______ ____
ROOT
ATOM      1  C   LIG    1        2.264  -4.584   3.704  0.00  0.00    +0.000 C 
ENDROOT
BRANCH   1   2
ATOM      2  C   LIG    1        1.524  -4.077   2.464  0.00  0.00    +0.000 C 
BRANCH   2   3
ATOM      3  C   LIG    1        1.503  -2.548   2.473  0.00  0.00    +0.000 C 
BRANCH   3   4
ATOM      4  C   LIG    1        0.763  -2.041   1.233  0.00  0.00    +0.000 C 
BRANCH   4   5
ATOM      5  C   LIG    1        0.742  -0.511   1.242  0.00  0.00    +0.000 C 
BRANCH   5   7
ATOM      6  C   LIG    1       -0.019   1.526   0.010  0.00  0.00    +0.000 C 
ATOM      7  C   LIG    1        0.002  -0.004   0.002  0.00  0.00    -0.010 C 
ENDBRANCH   5   7
ENDBRANCH   4   5
ENDBRANCH   3   4
ENDBRANCH   2   3
ENDBRANCH   1   2
BRANCH   1   8
ATOM      8  C   LIG    1        2.284  -6.114   3.695  0.00  0.00    +0.000 C 
BRANCH   8   9
ATOM      9  C   LIG    1        3.024  -6.621   4.935  0.00  0.00    +0.010 C 
BRANCH   9  10
ATOM     10  C   LIG    1        3.045  -8.151   4.926  0.00  0.00    -0.020 C 
BRANCH  10  11
ATOM     11  C   LIG    1        3.785  -8.658   6.166  0.00  0.00    +0.200 C 
ATOM     12  C   LIG    1        3.915 -10.180   6.095  0.00  0.00    +0.000 C 
BRANCH  11  13
ATOM     13  O   LIG    1        3.053  -8.296   7.339  0.00  0.00    -0.560 OA
ATOM     14  H   LIG    1        2.158  -8.660   7.372  0.00  0.00    +0.370 HD
ENDBRANCH  11  13
ENDBRANCH  10  11
ENDBRANCH   9  10
ENDBRANCH   8   9
ENDBRANCH   1   8
TORSDOF 10
ENDMDL
MODEL      211
REMARK  Name = ZINC000001605988
REMARK                            x       y       z     vdW  Elec       q    Type
REMARK                         _______ _______ _______ _____ _____    ______ ____
ROOT
ATOM      1  C   LIG    1        1.476  -4.051  -2.532  0.00  0.00    +0.000 C 
ENDROOT
BRANCH   1   2
ATOM      2  C   LIG    1        1.455  -2.521  -2.524  0.00  0.00    +0.000 C 
BRANCH   2   3
ATOM      3  C   LIG    1        0.739  -2.027  -1.265  0.00  0.00    +0.000 C 
BRANCH   3   4
ATOM      4  C   LIG    1        0.718  -0.497  -1.257  0.00  0.00    +0.000 C 
BRANCH   4   6
ATOM      5  C   LIG    1       -0.019   1.526   0.010  0.00  0.00    +0.000 C 
ATOM      6  C   LIG    1        0.002  -0.004   0.002  0.00  0.00    -0.010 C 
ENDBRANCH   4   6
ENDBRANCH   3   4
ENDBRANCH   2   3
ENDBRANCH   1   2
BRANCH   1   7
ATOM      7  C   LIG    1        2.192  -4.544  -3.791  0.00  0.00    +0.030 C 
BRANCH   7   8
ATOM      8  C   LIG    1        2.213  -6.074  -3.800  0.00  0.00    +0.030 C 
BRANCH   8   9
ATOM      9  C   LIG    1        2.918  -6.560  -5.040  0.00  0.00    +0.350 C 
ATOM     10  O   LIG    1        3.359  -5.765  -5.834  0.00  0.00    -0.450 OA
BRANCH   9  11
ATOM     11  C   LIG    1        3.074  -8.038  -5.287  0.00  0.00    +0.020 C 
ATOM     12  C   LIG    1        3.820  -8.259  -6.605  0.00  0.00    +0.030 C 
ENDBRANCH   9  11
ENDBRANCH   8   9
ENDBRANCH   7   8
ENDBRANCH   1   7
TORSDOF 8
ENDMDL
MODEL      212
REMARK  Name = ZINC000100049334
REMARK                            x       y       z     vdW  Elec       q    Type
REMARK                         _______ _______ _______ _____ _____    ______ ____
ROOT
ATOM      1  C   LIG    1       -1.293  -0.775   0.010  0.00  0.00    +0.010 C 
ATOM      2  C   LIG    1       -1.350  -1.663   1.255  0.00  0.00    +0.010 C 
ATOM      3  C   LIG    1       -0.174  -2.641   1.239  0.00  0.00    +0.020 C 
ATOM      4  C   LIG    1       -0.255  -3.515  -0.014  0.00  0.00    +0.020 C 
ATOM      5  C   LIG    1       -0.197  -2.627  -1.260  0.00  0.00    +0.030 C 
ATOM      6  C   LIG    1       -1.374  -1.649  -1.243  0.00  0.00    +0.040 C 
ENDROOT
BRANCH   1   8
ATOM      7  C   LIG    1       -0.016   1.306   0.009  0.00  0.00    +0.010 C 
ATOM      8  C   LIG    1        0.002  -0.004   0.002  0.00  0.00    -0.040 C 
ENDBRANCH   1   8
BRANCH   5   9
ATOM      9  C   LIG    1       -0.277  -3.488  -2.494  0.00  0.00    -0.030 C 
ATOM     10  C   LIG    1        0.701  -3.476  -3.365  0.00  0.00    +0.000 C 
ENDBRANCH   5   9
BRANCH   4  11
ATOM     11  C   LIG    1        0.904  -4.478  -0.031  0.00  0.00    -0.030 C 
ATOM     12  C   LIG    1        0.682  -5.769  -0.035  0.00  0.00    +0.000 C 
ENDBRANCH   4  11
TORSDOF 3
ENDMDL
MODEL      213
REMARK  Name = ZINC000001760824
REMARK                            x       y       z     vdW  Elec       q    Type
REMARK                         _______ _______ _______ _____ _____    ______ ____
ROOT
ATOM      1  C   LIG    1        2.264  -4.584   3.704  0.00  0.00    +0.000 C 
ENDROOT
BRANCH   1   2
ATOM      2  C   LIG    1        1.524  -4.077   2.464  0.00  0.00    +0.000 C 
BRANCH   2   3
ATOM      3  C   LIG    1        1.503  -2.548   2.473  0.00  0.00    +0.000 C 
BRANCH   3   4
ATOM      4  C   LIG    1        0.763  -2.041   1.233  0.00  0.00    +0.000 C 
BRANCH   4   5
ATOM      5  C   LIG    1        0.742  -0.511   1.242  0.00  0.00    +0.000 C 
BRANCH   5   7
ATOM      6  C   LIG    1       -0.019   1.526   0.010  0.00  0.00    +0.000 C 
ATOM      7  C   LIG    1        0.002  -0.004   0.002  0.00  0.00    -0.010 C 
ENDBRANCH   5   7
ENDBRANCH   4   5
ENDBRANCH   3   4
ENDBRANCH   2   3
ENDBRANCH   1   2
BRANCH   1   8
ATOM      8  C   LIG    1        2.284  -6.114   3.695  0.00  0.00    +0.000 C 
BRANCH   8   9
ATOM      9  C   LIG    1        3.024  -6.621   4.935  0.00  0.00    +0.010 C 
BRANCH   9  10
ATOM     10  C   LIG    1        3.045  -8.151   4.926  0.00  0.00    -0.020 C 
BRANCH  10  11
ATOM     11  C   LIG    1        3.785  -8.658   6.166  0.00  0.00    +0.200 C 
ATOM     12  C   LIG    1        3.698 -10.184   6.223  0.00  0.00    +0.000 C 
BRANCH  11  13
ATOM     13  O   LIG    1        5.156  -8.261   6.098  0.00  0.00    -0.560 OA
ATOM     14  H   LIG    1        5.627  -8.602   5.325  0.00  0.00    +0.370 HD
ENDBRANCH  11  13
ENDBRANCH  10  11
ENDBRANCH   9  10
ENDBRANCH   8   9
ENDBRANCH   1   8
TORSDOF 10
ENDMDL
MODEL      214
REMARK  Name = ZINC000001689824
REMARK                            x       y       z     vdW  Elec       q    Type
REMARK                         _______ _______ _______ _____ _____    ______ ____
ROOT
ATOM      1  C   LIG    1        2.811   5.587   0.005  0.00  0.00    +0.000 C 
ENDROOT
BRANCH   1   2
ATOM      2  C   LIG    1        2.832   4.057  -0.003  0.00  0.00    +0.000 C 
BRANCH   2   3
ATOM      3  C   LIG    1        1.397   3.527   0.008  0.00  0.00    +0.020 C 
BRANCH   3   4
ATOM      4  C   LIG    1        1.417   1.997  -0.001  0.00  0.00    +0.020 C 
BRANCH   4   5
ATOM      5  C   LIG    1       -0.018   1.468   0.010  0.00  0.00    +0.190 C 
BRANCH   5   7
ATOM      6  N   LIG    1        0.018  -1.140  -0.004  0.00  0.00    -0.440 NA
ATOM      7  C   LIG    1        0.002  -0.004   0.002  0.00  0.00    +0.200 C 
ENDBRANCH   5   7
ENDBRANCH   4   5
ENDBRANCH   3   4
ENDBRANCH   2   3
ENDBRANCH   1   2
BRANCH   1   8
ATOM      8  C   LIG    1        4.247   6.116  -0.006  0.00  0.00    +0.000 C 
BRANCH   8   9
ATOM      9  C   LIG    1        4.226   7.646   0.003  0.00  0.00    +0.000 C 
BRANCH   9  10
ATOM     10  C   LIG    1        5.661   8.176  -0.008  0.00  0.00    +0.020 C 
BRANCH  10  11
ATOM     11  C   LIG    1        5.641   9.705   0.000  0.00  0.00    +0.020 C 
BRANCH  11  12
ATOM     12  C   LIG    1        7.076  10.235  -0.011  0.00  0.00    +0.190 C 
BRANCH  12  13
ATOM     13  C   LIG    1        7.056  11.707  -0.002  0.00  0.00    +0.200 C 
ATOM     14  N   LIG    1        7.041  12.843   0.004  0.00  0.00    -0.440 NA
ENDBRANCH  12  13
ENDBRANCH  11  12
ENDBRANCH  10  11
ENDBRANCH   9  10
ENDBRANCH   8   9
ENDBRANCH   1   8
TORSDOF 11
ENDMDL
MODEL      215
REMARK  Name = ZINC000169838394
REMARK                            x       y       z     vdW  Elec       q    Type
REMARK                         _______ _______ _______ _____ _____    ______ ____
ROOT
ATOM      1  C   LIG    1       -1.063  -0.574  -0.309  0.00  0.00    -0.220 C 
ENDROOT
BRANCH   1   2
ATOM      2  C   LIG    1       -0.700  -1.574   0.758  0.00  0.00    -0.050 A 
ATOM      3  C   LIG    1       -0.669  -2.923   0.460  0.00  0.00    +0.000 A 
ATOM      4  C   LIG    1       -0.337  -3.840   1.439  0.00  0.00    +0.000 A 
ATOM      5  C   LIG    1       -0.034  -3.408   2.716  0.00  0.00    -0.010 A 
ATOM      6  C   LIG    1       -0.064  -2.059   3.015  0.00  0.00    +0.000 A 
ATOM      7  C   LIG    1       -0.393  -1.141   2.035  0.00  0.00    -0.010 A 
ENDBRANCH   1   2
BRANCH   1   8
ATOM      8 SI   LIG    1       -2.511   0.449   0.264  0.00  0.00    +1.020 Si
ATOM      9  C   LIG    1       -2.044   1.371   1.815  0.00  0.00    -0.230 C 
ATOM     10  C   LIG    1       -3.959  -0.668   0.618  0.00  0.00    -0.240 C 
ATOM     11  C   LIG    1       -2.977   1.667  -1.066  0.00  0.00    -0.240 C 
ENDBRANCH   1   8
BRANCH   1  13
ATOM     12  C   LIG    1        0.006   1.620  -0.390  0.00  0.00    -0.020 C 
ATOM     13  C   LIG    1        0.115   0.328  -0.575  0.00  0.00    +0.000 C 
ENDBRANCH   1  13
TORSDOF 3
ENDMDL
MODEL      216
REMARK  Name = ZINC000100049337
REMARK                            x       y       z     vdW  Elec       q    Type
REMARK                         _______ _______ _______ _____ _____    ______ ____
ROOT
ATOM      1  C   LIG    1       -1.293  -0.775   0.010  0.00  0.00    +0.020 C 
ATOM      2  C   LIG    1       -1.350  -1.663   1.255  0.00  0.00    +0.010 C 
ATOM      3  C   LIG    1       -2.664  -2.446   1.264  0.00  0.00    +0.020 C 
ATOM      4  C   LIG    1       -2.745  -3.320   0.010  0.00  0.00    +0.030 C 
ATOM      5  C   LIG    1       -2.688  -2.432  -1.235  0.00  0.00    +0.020 C 
ATOM      6  C   LIG    1       -1.374  -1.649  -1.243  0.00  0.00    +0.040 C 
ENDROOT
BRANCH   1   8
ATOM      7  C   LIG    1       -0.016   1.306   0.009  0.00  0.00    +0.000 C 
ATOM      8  C   LIG    1        0.002  -0.004   0.002  0.00  0.00    -0.040 C 
ENDBRANCH   1   8
BRANCH   5   9
ATOM      9  C   LIG    1       -3.847  -1.468  -1.218  0.00  0.00    -0.030 C 
ATOM     10  C   LIG    1       -4.722  -1.481  -2.193  0.00  0.00    +0.000 C 
ENDBRANCH   5   9
BRANCH   4  11
ATOM     11  C   LIG    1       -4.040  -4.091   0.019  0.00  0.00    -0.040 C 
ATOM     12  C   LIG    1       -4.022  -5.401   0.011  0.00  0.00    +0.000 C 
ENDBRANCH   4  11
TORSDOF 3
ENDMDL
MODEL      217
REMARK  Name = ZINC000001606033
REMARK                            x       y       z     vdW  Elec       q    Type
REMARK                         _______ _______ _______ _____ _____    ______ ____
ROOT
ATOM      1  C   LIG    1        1.476  -4.051  -2.532  0.00  0.00    +0.030 C 
ENDROOT
BRANCH   1   2
ATOM      2  C   LIG    1        1.455  -2.521  -2.524  0.00  0.00    +0.000 C 
BRANCH   2   3
ATOM      3  C   LIG    1        0.739  -2.027  -1.265  0.00  0.00    +0.000 C 
BRANCH   3   4
ATOM      4  C   LIG    1        0.718  -0.497  -1.257  0.00  0.00    +0.000 C 
BRANCH   4   6
ATOM      5  C   LIG    1       -0.019   1.526   0.010  0.00  0.00    +0.000 C 
ATOM      6  C   LIG    1        0.002  -0.004   0.002  0.00  0.00    -0.010 C 
ENDBRANCH   4   6
ENDBRANCH   3   4
ENDBRANCH   2   3
ENDBRANCH   1   2
BRANCH   1   7
ATOM      7  C   LIG    1        2.192  -4.544  -3.791  0.00  0.00    +0.030 C 
BRANCH   7   8
ATOM      8  C   LIG    1        2.212  -6.051  -3.800  0.00  0.00    +0.350 C 
ATOM      9  O   LIG    1        1.706  -6.667  -2.892  0.00  0.00    -0.450 OA
BRANCH   8  10
ATOM     10  C   LIG    1        2.864  -6.789  -4.940  0.00  0.00    +0.030 C 
BRANCH  10  11
ATOM     11  C   LIG    1        2.747  -8.297  -4.705  0.00  0.00    +0.020 C 
ATOM     12  C   LIG    1        3.409  -9.046  -5.863  0.00  0.00    +0.010 C 
ENDBRANCH  10  11
ENDBRANCH   8  10
ENDBRANCH   7   8
ENDBRANCH   1   7
TORSDOF 8
ENDMDL
MODEL      218
REMARK  Name = ZINC000049952226
REMARK                            x       y       z     vdW  Elec       q    Type
REMARK                         _______ _______ _______ _____ _____    ______ ____
ROOT
ATOM      1  C   LIG    1       -1.293  -0.775   0.010  0.00  0.00    +0.010 C 
ATOM      2  C   LIG    1       -1.350  -1.663   1.255  0.00  0.00    +0.020 C 
ATOM      3  C   LIG    1       -2.664  -2.446   1.264  0.00  0.00    +0.020 C 
ATOM      4  C   LIG    1       -2.745  -3.320   0.010  0.00  0.00    +0.020 C 
ATOM      5  C   LIG    1       -2.688  -2.432  -1.235  0.00  0.00    +0.020 C 
ATOM      6  C   LIG    1       -1.374  -1.649  -1.243  0.00  0.00    +0.030 C 
ENDROOT
BRANCH   1   8
ATOM      7  C   LIG    1       -0.016   1.306   0.009  0.00  0.00    +0.010 C 
ATOM      8  C   LIG    1        0.002  -0.004   0.002  0.00  0.00    -0.040 C 
ENDBRANCH   1   8
BRANCH   5   9
ATOM      9  C   LIG    1       -2.768  -3.293  -2.469  0.00  0.00    -0.040 C 
ATOM     10  C   LIG    1       -3.749  -3.127  -3.321  0.00  0.00    +0.000 C 
ENDBRANCH   5   9
BRANCH   4  11
ATOM     11  C   LIG    1       -1.587  -4.283  -0.006  0.00  0.00    -0.030 C 
ATOM     12  C   LIG    1       -1.809  -5.574  -0.011  0.00  0.00    -0.010 C 
ENDBRANCH   4  11
TORSDOF 3
ENDMDL
MODEL      219
REMARK  Name = ZINC000002038292
REMARK                            x       y       z     vdW  Elec       q    Type
REMARK                         _______ _______ _______ _____ _____    ______ ____
ROOT
ATOM      1  C   LIG    1        1.003  -1.448   2.002  0.00  0.00    +0.020 C 
ENDROOT
BRANCH   1   2
ATOM      2  C   LIG    1        0.630  -0.295   1.067  0.00  0.00    +0.000 C 
ATOM      3  C   LIG    1        0.603  -0.798  -0.378  0.00  0.00    +0.020 C 
BRANCH   2   5
ATOM      4  C   LIG    1       -0.871   1.484   1.805  0.00  0.00    +0.010 C 
ATOM      5  C   LIG    1       -0.731   0.234   1.440  0.00  0.00    -0.040 C 
ENDBRANCH   2   5
ENDBRANCH   1   2
BRANCH   1   6
ATOM      6  C   LIG    1        2.433  -1.903   1.705  0.00  0.00    +0.040 C 
BRANCH   6   7
ATOM      7  C   LIG    1        2.801  -3.038   2.625  0.00  0.00    -0.060 C 
ATOM      8  C   LIG    1        3.886  -2.964   3.356  0.00  0.00    -0.140 C 
ATOM      9  C   LIG    1        4.180  -4.032   4.378  0.00  0.00    +0.070 C 
ATOM     10  C   LIG    1        4.839  -1.811   3.174  0.00  0.00    +0.080 C 
ENDBRANCH   6   7
ENDBRANCH   1   6
TORSDOF 4
ENDMDL
MODEL      220
REMARK  Name = ZINC000095611678
REMARK                            x       y       z     vdW  Elec       q    Type
REMARK                         _______ _______ _______ _____ _____    ______ ____
ROOT
ATOM      1  C   LIG    1        1.376  -1.558   1.264  0.00  0.00    -0.040 C 
ATOM      2  C   LIG    1        2.449  -1.494   2.013  0.00  0.00    -0.050 C 
ENDROOT
BRANCH   1   3
ATOM      3  C   LIG    1        1.243  -0.661   0.061  0.00  0.00    +0.040 C 
ATOM      4  C   LIG    1        0.909  -1.506  -1.170  0.00  0.00    +0.040 C 
BRANCH   3   6
ATOM      5  C   LIG    1        0.404   1.622   0.282  0.00  0.00    +0.000 C 
ATOM      6  C   LIG    1        0.140   0.339   0.298  0.00  0.00    -0.030 C 
ENDBRANCH   3   6
ENDBRANCH   1   3
BRANCH   2   7
ATOM      7  C   LIG    1        3.472  -0.413   1.774  0.00  0.00    +0.040 C 
BRANCH   7   8
ATOM      8  C   LIG    1        3.716   0.353   3.076  0.00  0.00    +0.010 C 
BRANCH   8   9
ATOM      9  C   LIG    1        4.754   1.451   2.834  0.00  0.00    +0.000 C 
BRANCH   9  10
ATOM     10  C   LIG    1        4.999   2.217   4.136  0.00  0.00    -0.010 C 
ATOM     11  C   LIG    1        6.037   3.315   3.894  0.00  0.00    +0.000 C 
ENDBRANCH   9  10
ENDBRANCH   8   9
ENDBRANCH   7   8
ENDBRANCH   2   7
TORSDOF 6
ENDMDL
MODEL      221
REMARK  Name = ZINC000001601393
REMARK                            x       y       z     vdW  Elec       q    Type
REMARK                         _______ _______ _______ _____ _____    ______ ____
ROOT
ATOM      1  C   LIG    1       -1.374  -1.649  -1.243  0.00  0.00    +0.010 C 
ENDROOT
BRANCH   1   2
ATOM      2  C   LIG    1       -1.293  -0.775   0.010  0.00  0.00    +0.000 C 
ATOM      3  C   LIG    1       -1.350  -1.663   1.255  0.00  0.00    +0.020 C 
BRANCH   2   5
ATOM      4  C   LIG    1       -0.016   1.306   0.009  0.00  0.00    +0.010 C 
ATOM      5  C   LIG    1        0.002  -0.004   0.002  0.00  0.00    -0.040 C 
ENDBRANCH   2   5
ENDBRANCH   1   2
BRANCH   1   6
ATOM      6  C   LIG    1       -2.740  -2.336  -1.298  0.00  0.00    +0.000 C 
BRANCH   6   7
ATOM      7  C   LIG    1       -2.821  -3.210  -2.551  0.00  0.00    +0.000 C 
BRANCH   7   8
ATOM      8  C   LIG    1       -4.186  -3.897  -2.606  0.00  0.00    -0.030 C 
ATOM      9  C   LIG    1       -4.223  -4.866  -3.790  0.00  0.00    +0.000 C 
ATOM     10  C   LIG    1       -5.282  -2.843  -2.777  0.00  0.00    +0.010 C 
ENDBRANCH   7   8
ENDBRANCH   6   7
ENDBRANCH   1   6
TORSDOF 5
ENDMDL
MODEL      222
REMARK  Name = ZINC000169838396
REMARK                            x       y       z     vdW  Elec       q    Type
REMARK                         _______ _______ _______ _____ _____    ______ ____
ROOT
ATOM      1  C   LIG    1       -1.198  -0.445   0.221  0.00  0.00    -0.220 C 
ENDROOT
BRANCH   1   2
ATOM      2  C   LIG    1       -1.113  -1.298  -1.019  0.00  0.00    -0.050 A 
ATOM      3  C   LIG    1       -1.594  -0.818  -2.223  0.00  0.00    +0.000 A 
ATOM      4  C   LIG    1       -1.515  -1.600  -3.360  0.00  0.00    +0.000 A 
ATOM      5  C   LIG    1       -0.955  -2.862  -3.293  0.00  0.00    -0.010 A 
ATOM      6  C   LIG    1       -0.472  -3.341  -2.090  0.00  0.00    +0.000 A 
ATOM      7  C   LIG    1       -0.547  -2.558  -0.954  0.00  0.00    +0.000 A 
ENDBRANCH   1   2
BRANCH   1   8
ATOM      8 SI   LIG    1       -2.944   0.171   0.431  0.00  0.00    +1.020 Si
ATOM      9  C   LIG    1       -3.092   1.075   2.053  0.00  0.00    -0.240 C 
ATOM     10  C   LIG    1       -4.119  -1.276   0.417  0.00  0.00    -0.240 C 
ATOM     11  C   LIG    1       -3.367   1.328  -0.966  0.00  0.00    -0.240 C 
ENDBRANCH   1   8
BRANCH   1  13
ATOM     12  C   LIG    1       -0.723   1.950   0.221  0.00  0.00    -0.020 C 
ATOM     13  C   LIG    1       -0.264   0.730   0.088  0.00  0.00    -0.010 C 
ENDBRANCH   1  13
TORSDOF 3
ENDMDL
MODEL      223
REMARK  Name = ZINC000002106663
REMARK                            x       y       z     vdW  Elec       q    Type
REMARK                         _______ _______ _______ _____ _____    ______ ____
ROOT
ATOM      1  C   LIG    1       -1.293  -0.775   0.010  0.00  0.00    +0.060 C 
ATOM      2  C   LIG    1       -1.340  -1.736   1.221  0.00  0.00    +0.020 C 
ATOM      3  C   LIG    1       -0.808  -3.045   0.594  0.00  0.00    +0.060 C 
ATOM      4  C   LIG    1       -1.111  -2.916  -0.880  0.00  0.00    -0.130 C 
ATOM      5  C   LIG    1       -1.109  -4.065  -1.855  0.00  0.00    +0.090 C 
ATOM      6  C   LIG    1       -1.377  -1.675  -1.200  0.00  0.00    -0.130 C 
ENDROOT
BRANCH   1   8
ATOM      7  C   LIG    1       -0.016   1.306   0.009  0.00  0.00    +0.000 C 
ATOM      8  C   LIG    1        0.002  -0.004   0.002  0.00  0.00    -0.110 C 
ATOM      9  C   LIG    1        1.317  -0.740  -0.015  0.00  0.00    +0.080 C 
ENDBRANCH   1   8
BRANCH   6  10
ATOM     10  C   LIG    1       -1.720  -1.209  -2.592  0.00  0.00    +0.080 C 
BRANCH  10  11
ATOM     11  C   LIG    1       -3.240  -1.163  -2.754  0.00  0.00    +0.030 C 
BRANCH  11  12
ATOM     12  C   LIG    1       -3.583  -0.697  -4.145  0.00  0.00    +0.350 C 
ATOM     13  O   LIG    1       -2.702  -0.428  -4.926  0.00  0.00    -0.460 OA
ATOM     14  C   LIG    1       -5.025  -0.565  -4.562  0.00  0.00    +0.050 C 
ENDBRANCH  11  12
ENDBRANCH  10  11
ENDBRANCH   6  10
TORSDOF 4
ENDMDL
MODEL      224
REMARK  Name = ZINC000020476522
REMARK                            x       y       z     vdW  Elec       q    Type
REMARK                         _______ _______ _______ _____ _____    ______ ____
ROOT
ATOM      1  C   LIG    1       -0.401   1.510   0.121  0.00  0.00    +0.090 C 
ATOM      2  C   LIG    1       -0.246   0.015   0.012  0.00  0.00    -0.070 A 
ATOM      3  C   LIG    1       -0.064  -0.573  -1.226  0.00  0.00    -0.010 A 
ATOM      4  C   LIG    1        0.078  -1.945  -1.325  0.00  0.00    -0.050 A 
ATOM      5  C   LIG    1        0.038  -2.728  -0.187  0.00  0.00    -0.080 A 
ATOM      6  C   LIG    1       -0.143  -2.140   1.051  0.00  0.00    -0.060 A 
ATOM      7  C   LIG    1       -0.186  -2.995   2.292  0.00  0.00    +0.090 C 
ATOM      8  C   LIG    1        0.276  -2.586  -2.675  0.00  0.00    +0.100 C 
ATOM      9  C   LIG    1       -0.281  -0.769   1.151  0.00  0.00    -0.010 A 
ENDROOT
BRANCH   5  10
ATOM     10  C   LIG    1        0.193  -4.223  -0.296  0.00  0.00    +0.100 C 
ATOM     11  C   LIG    1       -1.093  -4.830  -0.861  0.00  0.00    +0.060 C 
BRANCH  10  12
ATOM     12  S   LIG    1        1.580  -4.609  -1.400  0.00  0.00    -0.220 S 
ATOM     13  H   LIG    1        1.600  -5.954  -1.403  0.00  0.00    +0.070 HD
ENDBRANCH  10  12
ENDBRANCH   5  10
TORSDOF 2
ENDMDL
MODEL      225
REMARK  Name = ZINC000020476523
REMARK                            x       y       z     vdW  Elec       q    Type
REMARK                         _______ _______ _______ _____ _____    ______ ____
ROOT
ATOM      1  C   LIG    1       -0.278   1.491  -0.073  0.00  0.00    +0.090 C 
ATOM      2  C   LIG    1       -0.114  -0.004   0.023  0.00  0.00    -0.070 A 
ATOM      3  C   LIG    1       -0.143  -0.778  -1.122  0.00  0.00    -0.010 A 
ATOM      4  C   LIG    1        0.007  -2.149  -1.033  0.00  0.00    -0.060 A 
ATOM      5  C   LIG    1        0.188  -2.746   0.200  0.00  0.00    -0.080 A 
ATOM      6  C   LIG    1        0.217  -1.972   1.345  0.00  0.00    -0.050 A 
ATOM      7  C   LIG    1        0.414  -2.623   2.690  0.00  0.00    +0.100 C 
ATOM      8  C   LIG    1       -0.025  -2.993  -2.281  0.00  0.00    +0.090 C 
ATOM      9  C   LIG    1        0.071  -0.601   1.256  0.00  0.00    -0.010 A 
ENDROOT
BRANCH   5  10
ATOM     10  C   LIG    1        0.352  -4.241   0.297  0.00  0.00    +0.100 C 
ATOM     11  C   LIG    1       -0.932  -4.861   0.852  0.00  0.00    +0.060 C 
BRANCH  10  12
ATOM     12  S   LIG    1        1.737  -4.627   1.404  0.00  0.00    -0.230 S 
ATOM     13  H   LIG    1        1.766  -5.971   1.395  0.00  0.00    +0.070 HD
ENDBRANCH  10  12
ENDBRANCH   5  10
TORSDOF 2
ENDMDL
MODEL      226
REMARK  Name = ZINC000020476623
REMARK                            x       y       z     vdW  Elec       q    Type
REMARK                         _______ _______ _______ _____ _____    ______ ____
ROOT
ATOM      1  C   LIG    1        0.731  -0.503   1.223  0.00  0.00    -0.060 A 
ATOM      2  C   LIG    1        2.119  -0.714   1.179  0.00  0.00    -0.040 A 
ATOM      3  C   LIG    1        2.859  -0.468   0.010  0.00  0.00    +0.020 A 
ATOM      4  C   LIG    1        4.203  -0.683   0.005  0.00  0.00    +0.010 A 
ATOM      5  C   LIG    1        4.859  -1.146   1.144  0.00  0.00    +0.000 A 
ATOM      6  C   LIG    1        4.176  -1.396   2.294  0.00  0.00    +0.030 A 
ATOM      7  C   LIG    1        2.788  -1.184   2.338  0.00  0.00    -0.050 A 
ATOM      8  C   LIG    1        2.048  -1.430   3.507  0.00  0.00    +0.030 A 
ATOM      9  C   LIG    1        0.704  -1.214   3.512  0.00  0.00    +0.020 A 
ATOM     10  C   LIG    1        0.049  -0.747   2.375  0.00  0.00    +0.040 A 
ENDROOT
BRANCH   1  12
ATOM     11  C   LIG    1       -0.386  -1.191  -0.882  0.00  0.00    +0.060 C 
ATOM     12  C   LIG    1        0.002  -0.004   0.002  0.00  0.00    +0.100 C 
BRANCH  12  13
ATOM     13  S   LIG    1       -1.495   0.884   0.512  0.00  0.00    -0.230 S 
ATOM     14  H   LIG    1       -2.035   1.266  -0.659  0.00  0.00    +0.080 HD
ENDBRANCH  12  13
ENDBRANCH   1  12
TORSDOF 2
ENDMDL
MODEL      227
REMARK  Name = ZINC000020476707
REMARK                            x       y       z     vdW  Elec       q    Type
REMARK                         _______ _______ _______ _____ _____    ______ ____
ROOT
ATOM      1  C   LIG    1        0.763  -2.041   1.233  0.00  0.00    +0.000 C 
ATOM      2  C   LIG    1        1.479  -2.534  -0.026  0.00  0.00    +0.030 C 
ATOM      3  C   LIG    1        1.500  -4.064  -0.034  0.00  0.00    +0.050 C 
ATOM      4  C   LIG    1        2.240  -4.571   1.205  0.00  0.00    +0.050 C 
ATOM      5  C   LIG    1        1.524  -4.077   2.464  0.00  0.00    +0.010 C 
ATOM      6  C   LIG    1        1.503  -2.548   2.473  0.00  0.00    +0.020 C 
ENDROOT
BRANCH   1   7
ATOM      7  C   LIG    1        0.742  -0.511   1.242  0.00  0.00    -0.060 C 
ATOM      8  C   LIG    1        0.026  -0.018   2.500  0.00  0.00    +0.020 C 
ATOM      9  C   LIG    1        2.178   0.019   1.231  0.00  0.00    +0.020 C 
BRANCH   7  11
ATOM     10  C   LIG    1       -0.019   1.526   0.010  0.00  0.00    +0.010 C 
ATOM     11  C   LIG    1        0.002  -0.004   0.002  0.00  0.00    +0.000 C 
ENDBRANCH   7  11
ENDBRANCH   1   7
BRANCH   4  12
ATOM     12  S   LIG    1        3.942  -3.943   1.193  0.00  0.00    -0.240 S 
ATOM     13  H   LIG    1        4.463  -4.459   2.320  0.00  0.00    +0.080 HD
ENDBRANCH   4  12
TORSDOF 3
ENDMDL
MODEL      228
REMARK  Name = ZINC000020476505
REMARK                            x       y       z     vdW  Elec       q    Type
REMARK                         _______ _______ _______ _____ _____    ______ ____
ROOT
ATOM      1  C   LIG    1        0.707  -0.490  -1.238  0.00  0.00    -0.080 A 
ATOM      2  C   LIG    1        2.026  -0.142  -1.464  0.00  0.00    +0.040 A 
ATOM      3  C   LIG    1        2.673  -0.587  -2.602  0.00  0.00    +0.000 A 
ATOM      4  C   LIG    1        2.002  -1.382  -3.512  0.00  0.00    -0.060 A 
ATOM      5  C   LIG    1        0.684  -1.732  -3.285  0.00  0.00    +0.010 A 
ATOM      6  C   LIG    1        0.038  -1.289  -2.146  0.00  0.00    +0.020 A 
ENDROOT
BRANCH   4   7
ATOM      7  C   LIG    1        2.707  -1.868  -4.752  0.00  0.00    -0.030 C 
ATOM      8  C   LIG    1        3.169  -0.666  -5.580  0.00  0.00    +0.040 C 
ATOM      9  C   LIG    1        1.747  -2.721  -5.584  0.00  0.00    +0.030 C 
ATOM     10  C   LIG    1        3.921  -2.708  -4.353  0.00  0.00    +0.040 C 
ENDBRANCH   4   7
BRANCH   1  12
ATOM     11  C   LIG    1       -0.019   1.526   0.010  0.00  0.00    +0.050 C 
ATOM     12  C   LIG    1        0.002  -0.004   0.002  0.00  0.00    +0.100 C 
BRANCH  12  13
ATOM     13  S   LIG    1        0.879  -0.605   1.472  0.00  0.00    -0.240 S 
ATOM     14  H   LIG    1        0.151  -0.103   2.485  0.00  0.00    +0.080 HD
ENDBRANCH  12  13
ENDBRANCH   1  12
TORSDOF 3
ENDMDL
MODEL      229
REMARK  Name = ZINC000020476504
REMARK                            x       y       z     vdW  Elec       q    Type
REMARK                         _______ _______ _______ _____ _____    ______ ____
ROOT
ATOM      1  C   LIG    1        0.731  -0.503   1.223  0.00  0.00    -0.080 A 
ATOM      2  C   LIG    1        2.050  -0.148   1.434  0.00  0.00    +0.040 A 
ATOM      3  C   LIG    1        2.719  -0.606   2.554  0.00  0.00    +0.000 A 
ATOM      4  C   LIG    1        2.068  -1.419   3.463  0.00  0.00    -0.060 A 
ATOM      5  C   LIG    1        0.748  -1.773   3.253  0.00  0.00    +0.010 A 
ATOM      6  C   LIG    1        0.079  -1.312   2.135  0.00  0.00    +0.020 A 
ENDROOT
BRANCH   4   7
ATOM      7  C   LIG    1        2.797  -1.918   4.684  0.00  0.00    -0.030 C 
ATOM      8  C   LIG    1        4.010  -2.745   4.251  0.00  0.00    +0.040 C 
ATOM      9  C   LIG    1        1.857  -2.791   5.518  0.00  0.00    +0.030 C 
ATOM     10  C   LIG    1        3.265  -0.727   5.522  0.00  0.00    +0.040 C 
ENDBRANCH   4   7
BRANCH   1  12
ATOM     11  C   LIG    1       -0.019   1.526   0.010  0.00  0.00    +0.050 C 
ATOM     12  C   LIG    1        0.002  -0.004   0.002  0.00  0.00    +0.100 C 
BRANCH  12  13
ATOM     13  S   LIG    1        0.851  -0.589  -1.490  0.00  0.00    -0.240 S 
ATOM     14  H   LIG    1        0.104  -0.077  -2.484  0.00  0.00    +0.080 HD
ENDBRANCH  12  13
ENDBRANCH   1  12
TORSDOF 3
ENDMDL
MODEL      230
REMARK  Name = ZINC000020476536
REMARK                            x       y       z     vdW  Elec       q    Type
REMARK                         _______ _______ _______ _____ _____    ______ ____
ROOT
ATOM      1  C   LIG    1        0.632  -2.000  -1.327  0.00  0.00    -0.070 A 
ATOM      2  C   LIG    1        1.163  -2.772  -0.311  0.00  0.00    +0.000 A 
ATOM      3  C   LIG    1        1.084  -4.151  -0.375  0.00  0.00    +0.030 A 
ATOM      4  C   LIG    1        0.473  -4.758  -1.456  0.00  0.00    +0.030 A 
ATOM      5  C   LIG    1       -0.059  -3.987  -2.473  0.00  0.00    -0.030 A 
ATOM      6 CL   LIG    1       -0.827  -4.750  -3.831  0.00  0.00    -0.060 Cl
ATOM      7  C   LIG    1        0.016  -2.607  -2.406  0.00  0.00    +0.040 A 
ENDROOT
BRANCH   1   8
ATOM      8  C   LIG    1        0.718  -0.497  -1.257  0.00  0.00    +0.130 C 
BRANCH   8  10
ATOM      9  C   LIG    1       -0.019   1.526   0.010  0.00  0.00    +0.030 C 
ATOM     10  C   LIG    1        0.002  -0.004   0.002  0.00  0.00    +0.020 C 
ENDBRANCH   8  10
BRANCH   8  11
ATOM     11  S   LIG    1        2.460   0.006  -1.198  0.00  0.00    -0.220 S 
ATOM     12  H   LIG    1        2.910  -0.591  -0.080  0.00  0.00    +0.090 HD
ENDBRANCH   8  11
ENDBRANCH   1   8
TORSDOF 3
ENDMDL
MODEL      231
REMARK  Name = ZINC000020476537
REMARK                            x       y       z     vdW  Elec       q    Type
REMARK                         _______ _______ _______ _____ _____    ______ ____
ROOT
ATOM      1  C   LIG    1        0.847  -1.998  -1.206  0.00  0.00    -0.070 A 
ATOM      2  C   LIG    1       -0.286  -2.787  -1.141  0.00  0.00    +0.000 A 
ATOM      3  C   LIG    1       -0.168  -4.164  -1.094  0.00  0.00    +0.030 A 
ATOM      4  C   LIG    1        1.083  -4.752  -1.112  0.00  0.00    +0.030 A 
ATOM      5  C   LIG    1        2.217  -3.962  -1.177  0.00  0.00    -0.030 A 
ATOM      6 CL   LIG    1        3.788  -4.700  -1.201  0.00  0.00    -0.060 Cl
ATOM      7  C   LIG    1        2.099  -2.585  -1.230  0.00  0.00    +0.040 A 
ENDROOT
BRANCH   1   8
ATOM      8  C   LIG    1        0.718  -0.497  -1.257  0.00  0.00    +0.130 C 
BRANCH   8  10
ATOM      9  C   LIG    1       -0.019   1.526   0.010  0.00  0.00    +0.030 C 
ATOM     10  C   LIG    1        0.002  -0.004   0.002  0.00  0.00    +0.020 C 
ENDBRANCH   8  10
BRANCH   8  11
ATOM     11  S   LIG    1       -0.239  -0.022  -2.723  0.00  0.00    -0.220 S 
ATOM     12  H   LIG    1       -1.419  -0.636  -2.525  0.00  0.00    +0.090 HD
ENDBRANCH   8  11
ENDBRANCH   1   8
TORSDOF 3
ENDMDL
MODEL      232
REMARK  Name = ZINC000020476665
REMARK                            x       y       z     vdW  Elec       q    Type
REMARK                         _______ _______ _______ _____ _____    ______ ____
ROOT
ATOM      1  C   LIG    1       -1.416  -2.058  -0.121  0.00  0.00    +0.130 C 
ENDROOT
BRANCH   1   2
ATOM      2  C   LIG    1       -2.819  -2.590   0.013  0.00  0.00    -0.080 A 
ATOM      3  C   LIG    1       -3.797  -2.192  -0.880  0.00  0.00    -0.010 A 
ATOM      4  C   LIG    1       -5.085  -2.680  -0.757  0.00  0.00    +0.010 A 
ATOM      5  C   LIG    1       -5.394  -3.567   0.258  0.00  0.00    +0.000 A 
ATOM      6  C   LIG    1       -4.416  -3.965   1.149  0.00  0.00    +0.020 A 
ATOM      7  C   LIG    1       -3.127  -3.480   1.024  0.00  0.00    +0.030 A 
ENDBRANCH   1   2
BRANCH   1   8
ATOM      8  S   LIG    1       -0.748  -2.514  -1.745  0.00  0.00    -0.230 S 
ATOM      9  H   LIG    1       -1.606  -1.930  -2.600  0.00  0.00    +0.090 HD
ENDBRANCH   1   8
BRANCH   1  10
ATOM     10  C   LIG    1       -1.433  -0.534   0.013  0.00  0.00    +0.030 C 
BRANCH  10  12
ATOM     11  C   LIG    1       -0.019   1.526   0.010  0.00  0.00    +0.010 C 
ATOM     12  C   LIG    1        0.002  -0.004   0.002  0.00  0.00    -0.010 C 
ATOM     13  C   LIG    1        0.742  -0.511   1.242  0.00  0.00    +0.020 C 
ENDBRANCH  10  12
ENDBRANCH   1  10
TORSDOF 4
ENDMDL
MODEL      233
REMARK  Name = ZINC000020476513
REMARK                            x       y       z     vdW  Elec       q    Type
REMARK                         _______ _______ _______ _____ _____    ______ ____
ROOT
ATOM      1  C   LIG    1       -1.416  -2.035  -0.119  0.00  0.00    -0.070 A 
ATOM      2  C   LIG    1       -1.450  -2.619  -1.372  0.00  0.00    +0.000 A 
ATOM      3  C   LIG    1       -1.434  -3.996  -1.493  0.00  0.00    +0.020 A 
ATOM      4  C   LIG    1       -1.384  -4.789  -0.361  0.00  0.00    -0.080 A 
ATOM      5  C   LIG    1       -1.348  -4.205   0.891  0.00  0.00    +0.040 A 
ATOM      6  C   LIG    1       -1.361  -2.828   1.012  0.00  0.00    +0.000 A 
ENDROOT
BRANCH   4   7
ATOM      7  C   LIG    1       -1.367  -6.290  -0.494  0.00  0.00    +0.100 C 
ATOM      8  C   LIG    1       -2.584  -6.878   0.223  0.00  0.00    +0.050 C 
BRANCH   7   9
ATOM      9  S   LIG    1        0.150  -6.946   0.254  0.00  0.00    -0.240 S 
ATOM     10  H   LIG    1        0.032  -8.272   0.066  0.00  0.00    +0.080 HD
ENDBRANCH   7   9
ENDBRANCH   4   7
BRANCH   1  11
ATOM     11  C   LIG    1       -1.433  -0.534   0.013  0.00  0.00    +0.060 C 
BRANCH  11  13
ATOM     12  C   LIG    1       -0.019   1.526   0.010  0.00  0.00    +0.020 C 
ATOM     13  C   LIG    1        0.002  -0.004   0.002  0.00  0.00    -0.020 C 
ATOM     14  C   LIG    1        0.742  -0.511   1.242  0.00  0.00    +0.010 C 
ENDBRANCH  11  13
ENDBRANCH   1  11
TORSDOF 4
ENDMDL
MODEL      234
REMARK  Name = ZINC000020476512
REMARK                            x       y       z     vdW  Elec       q    Type
REMARK                         _______ _______ _______ _____ _____    ______ ____
ROOT
ATOM      1  C   LIG    1       -1.416  -2.035  -0.119  0.00  0.00    -0.070 A 
ATOM      2  C   LIG    1       -1.450  -2.619  -1.372  0.00  0.00    +0.000 A 
ATOM      3  C   LIG    1       -1.434  -3.996  -1.493  0.00  0.00    +0.020 A 
ATOM      4  C   LIG    1       -1.384  -4.789  -0.361  0.00  0.00    -0.080 A 
ATOM      5  C   LIG    1       -1.348  -4.205   0.891  0.00  0.00    +0.040 A 
ATOM      6  C   LIG    1       -1.361  -2.828   1.012  0.00  0.00    +0.000 A 
ENDROOT
BRANCH   4   7
ATOM      7  C   LIG    1       -1.367  -6.290  -0.494  0.00  0.00    +0.100 C 
ATOM      8  C   LIG    1       -0.087  -6.843   0.137  0.00  0.00    +0.050 C 
BRANCH   7   9
ATOM      9  S   LIG    1       -2.810  -6.988   0.356  0.00  0.00    -0.240 S 
ATOM     10  H   LIG    1       -2.666  -8.310   0.159  0.00  0.00    +0.080 HD
ENDBRANCH   7   9
ENDBRANCH   4   7
BRANCH   1  11
ATOM     11  C   LIG    1       -1.433  -0.534   0.013  0.00  0.00    +0.060 C 
BRANCH  11  13
ATOM     12  C   LIG    1       -0.019   1.526   0.010  0.00  0.00    +0.020 C 
ATOM     13  C   LIG    1        0.002  -0.004   0.002  0.00  0.00    -0.020 C 
ATOM     14  C   LIG    1        0.742  -0.511   1.242  0.00  0.00    +0.010 C 
ENDBRANCH  11  13
ENDBRANCH   1  11
TORSDOF 4
ENDMDL
MODEL      235
REMARK  Name = ZINC000020476664
REMARK                            x       y       z     vdW  Elec       q    Type
REMARK                         _______ _______ _______ _____ _____    ______ ____
ROOT
ATOM      1  C   LIG    1       -1.410  -2.081   0.003  0.00  0.00    +0.130 C 
ENDROOT
BRANCH   1   2
ATOM      2  C   LIG    1       -2.798  -2.618  -0.235  0.00  0.00    -0.080 A 
ATOM      3  C   LIG    1       -3.819  -2.309   0.645  0.00  0.00    -0.010 A 
ATOM      4  C   LIG    1       -5.092  -2.801   0.427  0.00  0.00    +0.010 A 
ATOM      5  C   LIG    1       -5.344  -3.602  -0.671  0.00  0.00    +0.000 A 
ATOM      6  C   LIG    1       -4.324  -3.910  -1.552  0.00  0.00    +0.020 A 
ATOM      7  C   LIG    1       -3.052  -3.414  -1.336  0.00  0.00    +0.030 A 
ENDBRANCH   1   2
BRANCH   1   8
ATOM      8  S   LIG    1       -0.797  -2.677   1.603  0.00  0.00    -0.230 S 
ATOM      9  H   LIG    1       -1.697  -2.187   2.474  0.00  0.00    +0.090 HD
ENDBRANCH   1   8
BRANCH   1  10
ATOM     10  C   LIG    1       -1.449  -0.551   0.010  0.00  0.00    +0.030 C 
BRANCH  10  12
ATOM     11  C   LIG    1        0.753  -0.366  -1.156  0.00  0.00    +0.020 C 
ATOM     12  C   LIG    1       -0.023  -0.005   0.112  0.00  0.00    -0.010 C 
ATOM     13  C   LIG    1       -0.070   1.516   0.266  0.00  0.00    +0.010 C 
ENDBRANCH  10  12
ENDBRANCH   1  10
TORSDOF 4
ENDMDL
MODEL      236
REMARK  Name = ZINC000100061628
REMARK                            x       y       z     vdW  Elec       q    Type
REMARK                         _______ _______ _______ _____ _____    ______ ____
ROOT
ATOM      1  C   LIG    1        0.073  -2.823  -0.115  0.00  0.00    +0.080 C 
ATOM      2  C   LIG    1        0.259  -3.476  -1.453  0.00  0.00    -0.090 C 
ATOM      3  C   LIG    1        0.709  -4.679  -1.617  0.00  0.00    -0.070 C 
ATOM      4  C   LIG    1        1.098  -5.591  -0.491  0.00  0.00    +0.050 C 
ATOM      5  C   LIG    1        1.295  -4.787   0.796  0.00  0.00    +0.020 C 
ATOM      6  C   LIG    1       -0.100  -2.682  -2.683  0.00  0.00    +0.070 C 
ATOM      7  C   LIG    1        0.073  -3.881   0.990  0.00  0.00    -0.060 C 
ATOM      8  C   LIG    1       -1.206  -4.718   0.905  0.00  0.00    +0.020 C 
ATOM      9  C   LIG    1        0.153  -3.195   2.355  0.00  0.00    +0.020 C 
ENDROOT
BRANCH   1  11
ATOM     10  C   LIG    1       -1.254  -0.748  -0.116  0.00  0.00    -0.130 C 
ATOM     11  C   LIG    1       -1.240  -2.083  -0.098  0.00  0.00    +0.100 C 
BRANCH  10  13
ATOM     12  C   LIG    1       -0.031   1.492  -0.431  0.00  0.00    +0.060 C 
ATOM     13  C   LIG    1       -0.065  -0.010  -0.543  0.00  0.00    +0.370 C 
ATOM     14  O   LIG    1        0.893  -0.608  -0.988  0.00  0.00    -0.450 OA
ENDBRANCH  10  13
ENDBRANCH   1  11
TORSDOF 2
ENDMDL
MODEL      237
REMARK  Name = ZINC000100061629
REMARK                            x       y       z     vdW  Elec       q    Type
REMARK                         _______ _______ _______ _____ _____    ______ ____
ROOT
ATOM      1  C   LIG    1        0.073  -2.823  -0.115  0.00  0.00    +0.080 C 
ATOM      2  C   LIG    1        0.073  -3.861   0.969  0.00  0.00    -0.120 C 
ATOM      3  C   LIG    1       -0.104  -5.126   0.761  0.00  0.00    -0.050 C 
ATOM      4  C   LIG    1       -0.325  -5.733  -0.594  0.00  0.00    +0.060 C 
ATOM      5  C   LIG    1       -0.728  -4.650  -1.597  0.00  0.00    +0.020 C 
ATOM      6  C   LIG    1        0.292  -3.402   2.387  0.00  0.00    +0.060 C 
ATOM      7  C   LIG    1        0.263  -3.489  -1.479  0.00  0.00    -0.040 C 
ATOM      8  C   LIG    1        1.693  -4.019  -1.598  0.00  0.00    +0.030 C 
ATOM      9  C   LIG    1       -0.006  -2.469  -2.588  0.00  0.00    +0.030 C 
ENDROOT
BRANCH   1  11
ATOM     10  C   LIG    1       -1.253  -0.749  -0.069  0.00  0.00    -0.130 C 
ATOM     11  C   LIG    1       -1.240  -2.083  -0.098  0.00  0.00    +0.090 C 
BRANCH  10  13
ATOM     12  C   LIG    1       -0.029   1.502  -0.292  0.00  0.00    +0.060 C 
ATOM     13  C   LIG    1       -0.058   0.004  -0.448  0.00  0.00    +0.370 C 
ATOM     14  O   LIG    1        0.911  -0.579  -0.889  0.00  0.00    -0.450 OA
ENDBRANCH  10  13
ENDBRANCH   1  11
TORSDOF 2
ENDMDL
MODEL      238
REMARK  Name = ZINC000013548492
REMARK                            x       y       z     vdW  Elec       q    Type
REMARK                         _______ _______ _______ _____ _____    ______ ____
ROOT
ATOM      1  C   LIG    1        0.034  -2.900   0.057  0.00  0.00    -0.110 C 
ATOM      2  C   LIG    1        0.059  -4.196  -0.201  0.00  0.00    -0.080 C 
ATOM      3  C   LIG    1        1.318  -5.012  -0.253  0.00  0.00    +0.060 C 
ATOM      4  C   LIG    1        2.534  -4.094  -0.395  0.00  0.00    +0.010 C 
ATOM      5  C   LIG    1        2.441  -2.993   0.669  0.00  0.00    +0.020 C 
ATOM      6  C   LIG    1       -1.251  -4.895  -0.459  0.00  0.00    +0.060 C 
ATOM      7  C   LIG    1        1.263  -2.079   0.316  0.00  0.00    -0.010 C 
ATOM      8  C   LIG    1        0.993  -1.127   1.482  0.00  0.00    +0.030 C 
ATOM      9  C   LIG    1        1.611  -1.263  -0.931  0.00  0.00    +0.040 C 
ENDROOT
BRANCH   1  11
ATOM     10  C   LIG    1       -2.047  -2.218  -1.023  0.00  0.00    -0.130 C 
ATOM     11  C   LIG    1       -1.263  -2.228   0.085  0.00  0.00    +0.130 C 
BRANCH  10  13
ATOM     12  C   LIG    1       -2.451  -2.813  -3.443  0.00  0.00    +0.060 C 
ATOM     13  C   LIG    1       -1.542  -2.698  -2.246  0.00  0.00    +0.370 C 
ATOM     14  O   LIG    1       -0.375  -3.021  -2.337  0.00  0.00    -0.440 OA
ENDBRANCH  10  13
ENDBRANCH   1  11
TORSDOF 2
ENDMDL
MODEL      239
REMARK  Name = ZINC000045071927
REMARK                            x       y       z     vdW  Elec       q    Type
REMARK                         _______ _______ _______ _____ _____    ______ ____
ROOT
ATOM      1  C   LIG    1       -2.995  -1.919  -1.417  0.00  0.00    +0.010 C 
ATOM      2  C   LIG    1       -3.319  -2.388  -2.837  0.00  0.00    -0.010 C 
ATOM      3  C   LIG    1       -3.368  -1.185  -3.780  0.00  0.00    +0.040 C 
ATOM      4  C   LIG    1       -4.511  -0.255  -3.361  0.00  0.00    +0.020 C 
ATOM      5  C   LIG    1       -4.328   0.104  -1.903  0.00  0.00    +0.370 C 
ATOM      6  O   LIG    1       -4.345   1.256  -1.542  0.00  0.00    -0.460 OA
ATOM      7  C   LIG    1       -2.237  -3.360  -3.311  0.00  0.00    +0.030 C 
ATOM      8  C   LIG    1       -4.124  -1.017  -0.908  0.00  0.00    -0.040 C 
ATOM      9  C   LIG    1       -5.414  -1.828  -0.774  0.00  0.00    +0.060 C 
ENDROOT
BRANCH   1  10
ATOM     10  C   LIG    1       -1.680  -1.137  -1.425  0.00  0.00    +0.010 C 
BRANCH  10  11
ATOM     11  C   LIG    1       -1.293  -0.775   0.010  0.00  0.00    +0.050 C 
BRANCH  11  13
ATOM     12  C   LIG    1       -0.016   1.306   0.009  0.00  0.00    +0.000 C 
ATOM     13  C   LIG    1        0.002  -0.004   0.002  0.00  0.00    -0.130 C 
ATOM     14  C   LIG    1        1.317  -0.740  -0.015  0.00  0.00    +0.070 C 
ENDBRANCH  11  13
ENDBRANCH  10  11
ENDBRANCH   1  10
TORSDOF 3
ENDMDL
MODEL      240
REMARK  Name = ZINC000000968183
REMARK                            x       y       z     vdW  Elec       q    Type
REMARK                         _______ _______ _______ _____ _____    ______ ____
ROOT
ATOM      1  C   LIG    1        2.165  -0.079  -1.208  0.00  0.00    -0.070 A 
ATOM      2  C   LIG    1        2.551   1.137  -1.739  0.00  0.00    +0.020 A 
ATOM      3  C   LIG    1        3.879   1.521  -1.694  0.00  0.00    +0.030 A 
ATOM      4  C   LIG    1        4.820   0.688  -1.118  0.00  0.00    -0.090 A 
ATOM      5  C   LIG    1        4.433  -0.528  -0.586  0.00  0.00    +0.020 A 
ATOM      6  C   LIG    1        3.106  -0.910  -0.627  0.00  0.00    +0.000 A 
ENDROOT
BRANCH   4   7
ATOM      7  C   LIG    1        6.267   1.106  -1.070  0.00  0.00    +0.170 C 
ATOM      8  C   LIG    1        7.118   0.084  -1.827  0.00  0.00    +0.080 C 
BRANCH   7   9
ATOM      9  C   LIG    1        6.712   1.173   0.332  0.00  0.00    +0.210 C 
ATOM     10  N   LIG    1        7.055   1.224   1.413  0.00  0.00    -0.430 NA
ENDBRANCH   7   9
ENDBRANCH   4   7
BRANCH   1  11
ATOM     11  C   LIG    1        0.718  -0.497  -1.257  0.00  0.00    +0.060 C 
BRANCH  11  13
ATOM     12  C   LIG    1       -0.019   1.526   0.010  0.00  0.00    +0.010 C 
ATOM     13  C   LIG    1        0.002  -0.004   0.002  0.00  0.00    -0.020 C 
ATOM     14  C   LIG    1       -1.433  -0.534   0.013  0.00  0.00    +0.020 C 
ENDBRANCH  11  13
ENDBRANCH   1  11
TORSDOF 4
ENDMDL
MODEL      241
REMARK  Name = ZINC000002508184
REMARK                            x       y       z     vdW  Elec       q    Type
REMARK                         _______ _______ _______ _____ _____    ______ ____
ROOT
ATOM      1  C   LIG    1        2.020  -1.889   0.493  0.00  0.00    +0.140 C 
ATOM      2  C   LIG    1        2.140  -3.152   1.347  0.00  0.00    +0.020 C 
ENDROOT
BRANCH   1   4
ATOM      3  C   LIG    1        1.015   0.206   1.244  0.00  0.00    +0.030 C 
ATOM      4  C   LIG    1        0.853  -1.066   0.975  0.00  0.00    -0.080 C 
ENDBRANCH   1   4
BRANCH   1   5
ATOM      5  O   LIG    1        3.221  -1.123   0.604  0.00  0.00    -0.370 OA
BRANCH   5   6
ATOM      6  C   LIG    1        3.598  -0.825   1.950  0.00  0.00    +0.150 C 
ATOM      7  C   LIG    1        4.812   0.106   1.946  0.00  0.00    +0.040 C 
ENDBRANCH   5   6
ENDBRANCH   1   5
BRANCH   1   8
ATOM      8  C   LIG    1        1.798  -2.280  -0.969  0.00  0.00    +0.060 C 
BRANCH   8   9
ATOM      9  C   LIG    1        2.919  -3.218  -1.421  0.00  0.00    +0.060 C 
BRANCH   9  10
ATOM     10  C   LIG    1        2.701  -3.604  -2.861  0.00  0.00    -0.060 C 
ATOM     11  C   LIG    1        3.611  -3.322  -3.760  0.00  0.00    -0.130 C 
ATOM     12  C   LIG    1        3.464  -3.836  -5.169  0.00  0.00    +0.060 C 
ATOM     13  C   LIG    1        4.807  -2.485  -3.385  0.00  0.00    +0.070 C 
ENDBRANCH   9  10
ENDBRANCH   8   9
ENDBRANCH   1   8
TORSDOF 6
ENDMDL
MODEL      242
REMARK  Name = ZINC000390822294
REMARK                            x       y       z     vdW  Elec       q    Type
REMARK                         _______ _______ _______ _____ _____    ______ ____
ROOT
ATOM      1  C   LIG    1       -2.694  -2.680   0.840  0.00  0.00    +0.020 C 
ENDROOT
BRANCH   1   2
ATOM      2  C   LIG    1       -2.150  -2.414  -0.566  0.00  0.00    +0.100 C 
BRANCH   2   3
ATOM      3  C   LIG    1       -0.805  -1.742  -0.465  0.00  0.00    +0.070 C 
ATOM      4  C   LIG    1        0.297  -2.462  -0.517  0.00  0.00    -0.080 C 
BRANCH   3   5
ATOM      5  O   LIG    1       -0.728  -0.395  -0.321  0.00  0.00    -0.260 OA
BRANCH   5   7
ATOM      6  C   LIG    1        0.614   1.492  -0.314  0.00  0.00    +0.000 C 
ATOM      7  C   LIG    1        0.500   0.180  -0.352  0.00  0.00    +0.140 C 
ENDBRANCH   5   7
ENDBRANCH   3   5
ENDBRANCH   2   3
ENDBRANCH   1   2
BRANCH   1   8
ATOM      8  C   LIG    1       -4.059  -3.362   0.737  0.00  0.00    +0.020 C 
BRANCH   8   9
ATOM      9  C   LIG    1       -4.603  -3.629   2.142  0.00  0.00    +0.100 C 
BRANCH   9  10
ATOM     10  C   LIG    1       -5.948  -4.301   2.042  0.00  0.00    +0.070 C 
ATOM     11  C   LIG    1       -6.035  -5.614   2.100  0.00  0.00    -0.080 C 
BRANCH  10  12
ATOM     12  O   LIG    1       -7.070  -3.553   1.891  0.00  0.00    -0.260 OA
BRANCH  12  13
ATOM     13  C   LIG    1       -8.268  -4.189   1.922  0.00  0.00    +0.140 C 
ATOM     14  C   LIG    1       -9.375  -3.520   1.673  0.00  0.00    +0.000 C 
ENDBRANCH  12  13
ENDBRANCH  10  12
ENDBRANCH   9  10
ENDBRANCH   8   9
ENDBRANCH   1   8
TORSDOF 9
ENDMDL
MODEL      243
REMARK  Name = ZINC000001699425
REMARK                            x       y       z     vdW  Elec       q    Type
REMARK                         _______ _______ _______ _____ _____    ______ ____
ROOT
ATOM      1  C   LIG    1       -2.633  -2.524  -1.168  0.00  0.00    +0.000 C 
ENDROOT
BRANCH   1   2
ATOM      2  C   LIG    1       -1.319  -1.741  -1.176  0.00  0.00    +0.000 C 
BRANCH   2   3
ATOM      3  C   LIG    1       -1.293  -0.775   0.010  0.00  0.00    +0.040 C 
BRANCH   3   5
ATOM      4  C   LIG    1       -0.016   1.306   0.009  0.00  0.00    +0.000 C 
ATOM      5  C   LIG    1        0.002  -0.004   0.002  0.00  0.00    -0.050 C 
ENDBRANCH   3   5
ENDBRANCH   2   3
ENDBRANCH   1   2
BRANCH   1   6
ATOM      6  C   LIG    1       -2.659  -3.489  -2.355  0.00  0.00    +0.000 C 
BRANCH   6   7
ATOM      7  C   LIG    1       -3.974  -4.272  -2.346  0.00  0.00    +0.000 C 
BRANCH   7   8
ATOM      8  C   LIG    1       -4.000  -5.238  -3.533  0.00  0.00    -0.010 C 
ATOM      9  C   LIG    1       -5.314  -6.021  -3.525  0.00  0.00    +0.000 C 
ENDBRANCH   7   8
ENDBRANCH   6   7
ENDBRANCH   1   6
TORSDOF 6
ENDMDL
MODEL      244
REMARK  Name = ZINC000100673853
REMARK                            x       y       z     vdW  Elec       q    Type
REMARK                         _______ _______ _______ _____ _____    ______ ____
ROOT
ATOM      1  N   LIG    1       -0.095   0.133  -0.552  0.00  0.00    -0.340 NA
ATOM      2  C   LIG    1       -1.131  -0.581  -0.322  0.00  0.00    +0.140 C 
ATOM      3  C   LIG    1       -1.093  -2.083  -0.496  0.00  0.00    +0.100 C 
ATOM      4  C   LIG    1       -1.628  -2.736   0.783  0.00  0.00    +0.030 C 
ATOM      5  C   LIG    1       -3.015  -2.173   1.099  0.00  0.00    +0.020 C 
ATOM      6  C   LIG    1       -2.913  -0.674   1.389  0.00  0.00    +0.030 C 
ATOM      7  C   LIG    1       -2.425   0.055   0.139  0.00  0.00    +0.040 C 
ENDROOT
BRANCH   7   8
ATOM      8  C   LIG    1       -2.195   1.510   0.459  0.00  0.00    -0.080 C 
ATOM      9  C   LIG    1       -2.741   2.394  -0.312  0.00  0.00    -0.060 C 
ATOM     10  C   LIG    1       -2.594   3.876  -0.127  0.00  0.00    +0.050 C 
ATOM     11  C   LIG    1       -2.095   4.184   1.286  0.00  0.00    +0.000 C 
ATOM     12  C   LIG    1       -0.878   3.297   1.575  0.00  0.00    +0.020 C 
ATOM     13  C   LIG    1       -1.351   1.842   1.654  0.00  0.00    +0.050 C 
ENDBRANCH   7   8
BRANCH   1  14
ATOM     14  O   LIG    1       -0.194   1.546  -0.550  0.00  0.00    -0.380 OA
ATOM     15  H   LIG    1        0.641   1.999  -0.734  0.00  0.00    +0.380 HD
ENDBRANCH   1  14
TORSDOF 2
ENDMDL
MODEL      245
REMARK  Name = ZINC000100673857
REMARK                            x       y       z     vdW  Elec       q    Type
REMARK                         _______ _______ _______ _____ _____    ______ ____
ROOT
ATOM      1  N   LIG    1        0.005   0.011   0.205  0.00  0.00    -0.340 NA
ATOM      2  C   LIG    1       -1.087  -0.651   0.129  0.00  0.00    +0.140 C 
ATOM      3  C   LIG    1       -1.073  -2.161   0.032  0.00  0.00    +0.100 C 
ATOM      4  C   LIG    1       -1.941  -2.580  -1.159  0.00  0.00    +0.030 C 
ATOM      5  C   LIG    1       -3.336  -1.970  -1.012  0.00  0.00    +0.020 C 
ATOM      6  C   LIG    1       -3.243  -0.444  -1.062  0.00  0.00    +0.030 C 
ATOM      7  C   LIG    1       -2.425   0.055   0.139  0.00  0.00    +0.040 C 
ENDROOT
BRANCH   7   8
ATOM      8  C   LIG    1       -2.215   1.543   0.024  0.00  0.00    -0.080 C 
ATOM      9  C   LIG    1       -2.494   2.276   1.054  0.00  0.00    -0.060 C 
ATOM     10  C   LIG    1       -2.347   3.769   1.087  0.00  0.00    +0.060 C 
ATOM     11  C   LIG    1       -1.448   4.236  -0.060  0.00  0.00    +0.010 C 
ATOM     12  C   LIG    1       -1.944   3.590  -1.359  0.00  0.00    +0.000 C 
ATOM     13  C   LIG    1       -1.689   2.082  -1.274  0.00  0.00    +0.060 C 
ENDBRANCH   7   8
BRANCH   1  14
ATOM     14  O   LIG    1       -0.026   1.397   0.493  0.00  0.00    -0.380 OA
ATOM     15  H   LIG    1        0.847   1.811   0.531  0.00  0.00    +0.380 HD
ENDBRANCH   1  14
TORSDOF 2
ENDMDL
MODEL      246
REMARK  Name = ZINC000004713515
REMARK                            x       y       z     vdW  Elec       q    Type
REMARK                         _______ _______ _______ _____ _____    ______ ____
ROOT
ATOM      1  N   LIG    1        0.002  -0.004   0.002  0.00  0.00    -0.320 NA
ATOM      2  C   LIG    1       -1.097  -0.659   0.009  0.00  0.00    +0.140 C 
ATOM      3  C   LIG    1       -2.428   0.060   0.019  0.00  0.00    +0.040 C 
ATOM      4  C   LIG    1       -3.280  -0.509   1.159  0.00  0.00    +0.020 C 
ATOM      5  C   LIG    1       -3.385  -2.027   1.006  0.00  0.00    +0.020 C 
ATOM      6  C   LIG    1       -1.999  -2.659   1.147  0.00  0.00    +0.040 C 
ATOM      7  C   LIG    1       -1.099  -2.171   0.001  0.00  0.00    +0.100 C 
ENDROOT
BRANCH   7   8
ATOM      8  C   LIG    1        0.304  -2.683   0.207  0.00  0.00    -0.100 C 
ATOM      9  C   LIG    1        0.816  -3.436  -0.713  0.00  0.00    -0.050 C 
ATOM     10  C   LIG    1        2.194  -4.027  -0.644  0.00  0.00    +0.050 C 
ATOM     11  C   LIG    1        3.031  -3.293   0.406  0.00  0.00    +0.000 C 
ATOM     12  C   LIG    1        2.216  -3.209   1.703  0.00  0.00    +0.000 C 
ATOM     13  C   LIG    1        1.022  -2.281   1.462  0.00  0.00    +0.070 C 
ENDBRANCH   7   8
BRANCH   1  14
ATOM     14  O   LIG    1       -0.017   1.412   0.010  0.00  0.00    -0.420 OA
ATOM     15  H   LIG    1        0.861   1.817   0.004  0.00  0.00    +0.400 HD
ENDBRANCH   1  14
TORSDOF 2
ENDMDL
MODEL      247
REMARK  Name = ZINC000014806973
REMARK                            x       y       z     vdW  Elec       q    Type
REMARK                         _______ _______ _______ _____ _____    ______ ____
ROOT
ATOM      1  C   LIG    1        0.123   0.120   3.499  0.00  0.00    -0.020 C 
ATOM      2  C   LIG    1        1.292   1.074   3.248  0.00  0.00    +0.010 C 
ENDROOT
BRANCH   1   3
ATOM      3  C   LIG    1       -0.730   0.013   2.233  0.00  0.00    +0.010 C 
BRANCH   3   4
ATOM      4  C   LIG    1        0.092  -0.638   1.119  0.00  0.00    +0.020 C 
BRANCH   4   6
ATOM      5  C   LIG    1       -1.093   0.659  -0.658  0.00  0.00    +0.050 C 
ATOM      6  C   LIG    1       -0.760  -0.745  -0.148  0.00  0.00    -0.070 C 
BRANCH   6   7
ATOM      7  C   LIG    1        0.005  -1.496  -1.207  0.00  0.00    +0.440 C 
ATOM      8  O   LIG    1       -0.440  -2.523  -1.659  0.00  0.00    -0.460 OA
ENDBRANCH   6   7
ENDBRANCH   4   6
ENDBRANCH   3   4
ENDBRANCH   1   3
BRANCH   1   9
ATOM      9  C   LIG    1       -0.735   0.655   4.647  0.00  0.00    +0.020 C 
BRANCH   9  10
ATOM     10  C   LIG    1        0.059   0.584   5.953  0.00  0.00    -0.070 C 
ATOM     11  C   LIG    1        0.589  -0.838   6.151  0.00  0.00    +0.010 C 
ATOM     12  C   LIG    1       -0.852   0.956   7.125  0.00  0.00    +0.010 C 
ATOM     13  C   LIG    1        1.234   1.562   5.890  0.00  0.00    +0.020 C 
ENDBRANCH   9  10
ENDBRANCH   1   9
TORSDOF 6
ENDMDL
MODEL      248
REMARK  Name = ZINC000004713514
REMARK                            x       y       z     vdW  Elec       q    Type
REMARK                         _______ _______ _______ _____ _____    ______ ____
ROOT
ATOM      1  N   LIG    1        0.002  -0.004   0.002  0.00  0.00    -0.320 NA
ATOM      2  C   LIG    1       -1.097  -0.659   0.009  0.00  0.00    +0.140 C 
ATOM      3  C   LIG    1       -2.428   0.060   0.019  0.00  0.00    +0.040 C 
ATOM      4  C   LIG    1       -3.296  -0.505  -1.110  0.00  0.00    +0.020 C 
ATOM      5  C   LIG    1       -3.398  -2.024  -0.961  0.00  0.00    +0.020 C 
ATOM      6  C   LIG    1       -2.015  -2.656  -1.122  0.00  0.00    +0.040 C 
ATOM      7  C   LIG    1       -1.099  -2.171   0.001  0.00  0.00    +0.100 C 
ENDROOT
BRANCH   7   8
ATOM      8  C   LIG    1        0.299  -2.684  -0.230  0.00  0.00    -0.100 C 
ATOM      9  C   LIG    1        0.823  -3.446   0.676  0.00  0.00    -0.050 C 
ATOM     10  C   LIG    1        2.206  -4.023   0.593  0.00  0.00    +0.050 C 
ATOM     11  C   LIG    1        2.722  -3.948  -0.846  0.00  0.00    +0.000 C 
ATOM     12  C   LIG    1        2.503  -2.522  -1.366  0.00  0.00    +0.000 C 
ATOM     13  C   LIG    1        0.995  -2.284  -1.497  0.00  0.00    +0.070 C 
ENDBRANCH   7   8
BRANCH   1  14
ATOM     14  O   LIG    1       -0.017   1.412   0.010  0.00  0.00    -0.420 OA
ATOM     15  H   LIG    1        0.861   1.817   0.004  0.00  0.00    +0.400 HD
ENDBRANCH   1  14
TORSDOF 2
ENDMDL
MODEL      249
REMARK  Name = ZINC000001654107
REMARK                            x       y       z     vdW  Elec       q    Type
REMARK                         _______ _______ _______ _____ _____    ______ ____
ROOT
ATOM      1  C   LIG    1        2.154   0.032  -1.268  0.00  0.00    +0.020 C 
ENDROOT
BRANCH   1   2
ATOM      2  C   LIG    1        0.718  -0.497  -1.257  0.00  0.00    +0.030 C 
BRANCH   2   4
ATOM      3  C   LIG    1       -0.019   1.526   0.010  0.00  0.00    +0.060 C 
ATOM      4  C   LIG    1        0.002  -0.004   0.002  0.00  0.00    +0.030 C 
ATOM      5  C   LIG    1        0.742  -0.511   1.242  0.00  0.00    +0.060 C 
BRANCH   4   6
ATOM      6  C   LIG    1       -1.379  -0.514   0.013  0.00  0.00    +0.210 C 
ATOM      7  N   LIG    1       -2.445  -0.907   0.021  0.00  0.00    -0.430 NA
ENDBRANCH   4   6
ENDBRANCH   2   4
ENDBRANCH   1   2
BRANCH   1   8
ATOM      8  C   LIG    1        2.870  -0.461  -2.526  0.00  0.00    +0.020 C 
BRANCH   8   9
ATOM      9  C   LIG    1        4.305   0.068  -2.537  0.00  0.00    +0.030 C 
BRANCH   9  10
ATOM     10  C   LIG    1        5.021  -0.425  -3.796  0.00  0.00    +0.030 C 
ATOM     11  C   LIG    1        4.281   0.082  -5.036  0.00  0.00    +0.060 C 
ATOM     12  C   LIG    1        5.042  -1.955  -3.804  0.00  0.00    +0.060 C 
BRANCH  10  13
ATOM     13  C   LIG    1        6.402   0.084  -3.807  0.00  0.00    +0.210 C 
ATOM     14  N   LIG    1        7.468   0.478  -3.815  0.00  0.00    -0.430 NA
ENDBRANCH  10  13
ENDBRANCH   9  10
ENDBRANCH   8   9
ENDBRANCH   1   8
TORSDOF 7
ENDMDL
MODEL      250
REMARK  Name = ZINC000014806969
REMARK                            x       y       z     vdW  Elec       q    Type
REMARK                         _______ _______ _______ _____ _____    ______ ____
ROOT
ATOM      1  C   LIG    1       -0.041  -0.779   3.808  0.00  0.00    -0.020 C 
ATOM      2  C   LIG    1       -0.360  -2.274   3.861  0.00  0.00    +0.010 C 
ENDROOT
BRANCH   1   3
ATOM      3  C   LIG    1       -0.845  -0.125   2.682  0.00  0.00    +0.020 C 
BRANCH   3   4
ATOM      4  C   LIG    1       -0.385  -0.685   1.335  0.00  0.00    +0.030 C 
BRANCH   4   6
ATOM      5  C   LIG    1       -0.871   1.464   0.157  0.00  0.00    +0.050 C 
ATOM      6  C   LIG    1       -1.190  -0.032   0.210  0.00  0.00    -0.070 C 
BRANCH   6   7
ATOM      7  C   LIG    1       -0.825  -0.670  -1.106  0.00  0.00    +0.440 C 
ATOM      8  O   LIG    1       -1.672  -1.223  -1.765  0.00  0.00    -0.460 OA
ENDBRANCH   6   7
ENDBRANCH   4   6
ENDBRANCH   3   4
ENDBRANCH   1   3
BRANCH   1   9
ATOM      9  C   LIG    1       -0.412  -0.130   5.143  0.00  0.00    +0.010 C 
BRANCH   9  10
ATOM     10  C   LIG    1        0.716  -0.358   6.151  0.00  0.00    -0.070 C 
ATOM     11  C   LIG    1        1.016  -1.855   6.251  0.00  0.00    +0.020 C 
ATOM     12  C   LIG    1        0.288   0.169   7.523  0.00  0.00    +0.010 C 
ATOM     13  C   LIG    1        1.972   0.384   5.689  0.00  0.00    +0.020 C 
ENDBRANCH   9  10
ENDBRANCH   1   9
TORSDOF 6
ENDMDL
MODEL      251
REMARK  Name = ZINC000038891170
REMARK                            x       y       z     vdW  Elec       q    Type
REMARK                         _______ _______ _______ _____ _____    ______ ____
ROOT
ATOM      1  C   LIG    1        0.709  -0.491  -1.237  0.00  0.00    -0.080 A 
ATOM      2  C   LIG    1        0.760  -1.865  -1.527  0.00  0.00    -0.040 A 
ATOM      3  C   LIG    1        0.159  -2.812  -0.680  0.00  0.00    +0.010 A 
ATOM      4  C   LIG    1        0.229  -4.135  -0.993  0.00  0.00    +0.010 A 
ATOM      5  C   LIG    1        0.887  -4.566  -2.143  0.00  0.00    +0.010 A 
ATOM      6  C   LIG    1        1.480  -3.678  -2.986  0.00  0.00    +0.030 A 
ATOM      7  C   LIG    1        1.429  -2.304  -2.697  0.00  0.00    -0.050 A 
ATOM      8  C   LIG    1        2.029  -1.356  -3.543  0.00  0.00    +0.030 A 
ATOM      9  C   LIG    1        1.959  -0.033  -3.231  0.00  0.00    +0.010 A 
ATOM     10  C   LIG    1        1.296   0.398  -2.083  0.00  0.00    +0.030 A 
ENDROOT
BRANCH   1  12
ATOM     11  C   LIG    1       -0.028   1.526   0.004  0.00  0.00    +0.070 C 
ATOM     12  C   LIG    1        0.002  -0.004   0.002  0.00  0.00    +0.080 C 
ATOM     13  C   LIG    1        0.747  -0.502   1.243  0.00  0.00    +0.070 C 
BRANCH  12  14
ATOM     14  C   LIG    1       -1.376  -0.522   0.016  0.00  0.00    +0.210 C 
ATOM     15  N   LIG    1       -2.439  -0.921   0.027  0.00  0.00    -0.420 NA
ENDBRANCH  12  14
ENDBRANCH   1  12
TORSDOF 2
ENDMDL
MODEL      252
REMARK  Name = ZINC000001555564
REMARK                            x       y       z     vdW  Elec       q    Type
REMARK                         _______ _______ _______ _____ _____    ______ ____
ROOT
ATOM      1  C   LIG    1       -0.018   1.468   0.010  0.00  0.00    +0.170 C 
ENDROOT
BRANCH   1   2
ATOM      2  C   LIG    1       -0.758   1.975  -1.229  0.00  0.00    +0.010 C 
ATOM      3  C   LIG    1       -0.779   3.504  -1.221  0.00  0.00    +0.030 C 
ATOM      4  C   LIG    1       -1.519   4.011  -2.461  0.00  0.00    +0.000 C 
ATOM      5  C   LIG    1       -0.802   3.518  -3.719  0.00  0.00    +0.000 C 
ATOM      6  C   LIG    1       -0.782   1.988  -3.728  0.00  0.00    +0.000 C 
ATOM      7  C   LIG    1       -0.042   1.481  -2.488  0.00  0.00    +0.010 C 
ENDBRANCH   1   2
BRANCH   1   8
ATOM      8  C   LIG    1       -0.723   1.954   1.250  0.00  0.00    -0.080 A 
ATOM      9  C   LIG    1       -2.038   1.596   1.482  0.00  0.00    +0.010 A 
ATOM     10  C   LIG    1       -2.685   2.042   2.620  0.00  0.00    +0.000 A 
ATOM     11  C   LIG    1       -2.017   2.845   3.525  0.00  0.00    +0.010 A 
ATOM     12  C   LIG    1       -0.702   3.202   3.293  0.00  0.00    +0.010 A 
ATOM     13  C   LIG    1       -0.054   2.753   2.158  0.00  0.00    +0.020 A 
ENDBRANCH   1   8
BRANCH   1  15
ATOM     14  N   LIG    1        0.018  -1.140  -0.004  0.00  0.00    -0.430 NA
ATOM     15  C   LIG    1        0.002  -0.004   0.002  0.00  0.00    +0.210 C 
ENDBRANCH   1  15
TORSDOF 3
ENDMDL
MODEL      253
REMARK  Name = ZINC000100042658
REMARK                            x       y       z     vdW  Elec       q    Type
REMARK                         _______ _______ _______ _____ _____    ______ ____
ROOT
ATOM      1  C   LIG    1        1.242  -3.130  -2.293  0.00  0.00    -0.180 C 
ATOM      2  C   LIG    1        1.576  -4.403  -2.244  0.00  0.00    -0.070 C 
ATOM      3  C   LIG    1        2.414  -5.087  -3.284  0.00  0.00    +0.070 C 
ATOM      4  C   LIG    1        2.452  -4.250  -4.564  0.00  0.00    +0.020 C 
ATOM      5  C   LIG    1        2.813  -2.807  -4.191  0.00  0.00    +0.030 C 
ATOM      6  C   LIG    1        1.088  -5.220  -1.075  0.00  0.00    +0.070 C 
ATOM      7  C   LIG    1        1.645  -2.205  -3.404  0.00  0.00    -0.010 C 
ATOM      8  C   LIG    1        2.074  -0.862  -2.808  0.00  0.00    +0.030 C 
ATOM      9  C   LIG    1        0.460  -1.983  -4.346  0.00  0.00    +0.040 C 
ENDROOT
BRANCH   1  10
ATOM     10  C   LIG    1        0.423  -2.585  -1.200  0.00  0.00    +0.430 C 
ATOM     11  O   LIG    1        0.884  -2.502  -0.077  0.00  0.00    -0.460 OA
BRANCH  10  14
ATOM     12  C   LIG    1       -3.082  -1.125  -0.764  0.00  0.00    +0.090 C 
ATOM     13  C   LIG    1       -1.671  -1.580  -0.493  0.00  0.00    +0.060 C 
ATOM     14  C   LIG    1       -0.954  -2.140  -1.465  0.00  0.00    -0.120 C 
ENDBRANCH  10  14
ENDBRANCH   1  10
TORSDOF 2
ENDMDL
MODEL      254
REMARK  Name = ZINC000100042655
REMARK                            x       y       z     vdW  Elec       q    Type
REMARK                         _______ _______ _______ _____ _____    ______ ____
ROOT
ATOM      1  C   LIG    1        1.251  -2.859  -2.157  0.00  0.00    +0.020 C 
ATOM      2  C   LIG    1        2.701  -3.084  -1.840  0.00  0.00    -0.120 C 
ATOM      3  C   LIG    1        3.190  -4.216  -1.447  0.00  0.00    -0.030 C 
ATOM      4  C   LIG    1        2.378  -5.465  -1.263  0.00  0.00    +0.060 C 
ATOM      5  C   LIG    1        0.889  -5.118  -1.185  0.00  0.00    +0.030 C 
ATOM      6  C   LIG    1        3.645  -1.919  -1.988  0.00  0.00    +0.060 C 
ATOM      7  C   LIG    1        0.545  -4.201  -2.361  0.00  0.00    -0.050 C 
ATOM      8  C   LIG    1        1.022  -4.838  -3.668  0.00  0.00    +0.030 C 
ATOM      9  C   LIG    1       -0.968  -3.979  -2.415  0.00  0.00    +0.030 C 
ENDROOT
BRANCH   1  10
ATOM     10  C   LIG    1        0.599  -2.120  -1.016  0.00  0.00    +0.400 C 
ATOM     11  O   LIG    1        0.091  -2.739  -0.104  0.00  0.00    -0.450 OA
BRANCH  10  14
ATOM     12  C   LIG    1       -0.018   1.503   0.010  0.00  0.00    +0.090 C 
ATOM     13  C   LIG    1        0.002  -0.004   0.002  0.00  0.00    +0.060 C 
ATOM     14  C   LIG    1        0.579  -0.658  -1.008  0.00  0.00    -0.120 C 
ENDBRANCH  10  14
ENDBRANCH   1  10
TORSDOF 2
ENDMDL
MODEL      255
REMARK  Name = ZINC000100042652
REMARK                            x       y       z     vdW  Elec       q    Type
REMARK                         _______ _______ _______ _____ _____    ______ ____
ROOT
ATOM      1  C   LIG    1        1.182  -3.009  -2.390  0.00  0.00    +0.020 C 
ATOM      2  C   LIG    1        0.311  -3.510  -3.504  0.00  0.00    -0.110 C 
ATOM      3  C   LIG    1        0.371  -4.710  -3.987  0.00  0.00    -0.040 C 
ATOM      4  C   LIG    1        1.312  -5.769  -3.494  0.00  0.00    +0.060 C 
ATOM      5  C   LIG    1        2.439  -5.134  -2.676  0.00  0.00    +0.030 C 
ATOM      6  C   LIG    1       -0.695  -2.558  -4.098  0.00  0.00    +0.050 C 
ATOM      7  C   LIG    1        1.812  -4.188  -1.646  0.00  0.00    -0.050 C 
ATOM      8  C   LIG    1        0.738  -4.932  -0.850  0.00  0.00    +0.030 C 
ATOM      9  C   LIG    1        2.896  -3.671  -0.697  0.00  0.00    +0.030 C 
ENDROOT
BRANCH   1  10
ATOM     10  C   LIG    1        0.348  -2.200  -1.430  0.00  0.00    +0.400 C 
ATOM     11  O   LIG    1       -0.816  -2.488  -1.246  0.00  0.00    -0.450 OA
BRANCH  10  14
ATOM     12  C   LIG    1        0.816   0.814   0.864  0.00  0.00    +0.090 C 
ATOM     13  C   LIG    1        0.204  -0.352   0.132  0.00  0.00    +0.060 C 
ATOM     14  C   LIG    1        0.942  -1.068  -0.719  0.00  0.00    -0.120 C 
ENDBRANCH  10  14
ENDBRANCH   1  10
TORSDOF 2
ENDMDL
MODEL      256
REMARK  Name = ZINC000001584175
REMARK                            x       y       z     vdW  Elec       q    Type
REMARK                         _______ _______ _______ _____ _____    ______ ____
ROOT
ATOM      1  O   LIG    1        0.002  -0.004   0.002  0.00  0.00    -0.293 OA
ATOM      2  C   LIG    1       -0.014   1.209   0.009  0.00  0.00    +0.156 C 
ATOM      3  C   LIG    1       -1.288   1.924   0.031  0.00  0.00    +0.045 C 
ATOM      4  C   LIG    1       -1.332   3.253   0.029  0.00  0.00    -0.066 C 
ATOM      5  C   LIG    1       -0.076   4.079   0.003  0.00  0.00    +0.034 C 
ATOM      6  C   LIG    1        1.060   3.327   0.696  0.00  0.00    +0.000 C 
ATOM      7  C   LIG    1        0.694   3.081   2.161  0.00  0.00    +0.004 C 
ATOM      8  C   LIG    1        0.818   4.389   2.945  0.00  0.00    +0.000 C 
ATOM      9  C   LIG    1       -0.402   4.556   3.853  0.00  0.00    +0.000 C 
ATOM     10  C   LIG    1       -1.418   5.478   3.175  0.00  0.00    +0.000 C 
ATOM     11  C   LIG    1       -2.465   4.634   2.445  0.00  0.00    +0.000 C 
ATOM     12  C   LIG    1       -2.614   5.138   1.008  0.00  0.00    +0.004 C 
ATOM     13  C   LIG    1       -2.671   3.945   0.052  0.00  0.00    +0.031 C 
ATOM     14  C   LIG    1        1.280   1.983   0.001  0.00  0.00    +0.083 C 
ENDROOT
TORSDOF 0
ENDMDL
MODEL      257
REMARK  Name = ZINC000020476690
REMARK                            x       y       z     vdW  Elec       q    Type
REMARK                         _______ _______ _______ _____ _____    ______ ____
ROOT
ATOM      1  C   LIG    1        0.612  -0.558  -1.287  0.00  0.00    +0.020 C 
ATOM      2  C   LIG    1        0.496  -2.083  -1.292  0.00  0.00    +0.030 C 
ATOM      3  C   LIG    1        1.106  -2.637  -2.582  0.00  0.00    +0.010 C 
ATOM      4  C   LIG    1        2.581  -2.238  -2.660  0.00  0.00    +0.010 C 
ATOM      5  C   LIG    1        2.697  -0.712  -2.655  0.00  0.00    +0.020 C 
ATOM      6  C   LIG    1        2.087  -0.158  -1.366  0.00  0.00    +0.060 C 
ENDROOT
BRANCH   1   8
ATOM      7  C   LIG    1       -0.059   1.523  -0.077  0.00  0.00    +0.040 C 
ATOM      8  C   LIG    1        0.002  -0.004   0.002  0.00  0.00    -0.060 C 
ATOM      9  C   LIG    1       -1.411  -0.563   0.178  0.00  0.00    +0.030 C 
ATOM     10  C   LIG    1        0.867  -0.418   1.194  0.00  0.00    +0.020 C 
ENDBRANCH   1   8
BRANCH   6  11
ATOM     11  S   LIG    1        2.225   1.650  -1.360  0.00  0.00    -0.220 S 
ATOM     12  H   LIG    1        3.552   1.853  -1.433  0.00  0.00    +0.040 HD
ENDBRANCH   6  11
TORSDOF 2
ENDMDL
MODEL      258
REMARK  Name = ZINC000020476687
REMARK                            x       y       z     vdW  Elec       q    Type
REMARK                         _______ _______ _______ _____ _____    ______ ____
ROOT
ATOM      1  C   LIG    1        0.069  -0.687  -1.365  0.00  0.00    +0.020 C 
ATOM      2  C   LIG    1       -0.540  -2.087  -1.267  0.00  0.00    +0.020 C 
ATOM      3  C   LIG    1       -0.473  -2.770  -2.634  0.00  0.00    +0.000 C 
ATOM      4  C   LIG    1        0.987  -2.879  -3.079  0.00  0.00    +0.010 C 
ATOM      5  C   LIG    1        1.596  -1.479  -3.178  0.00  0.00    +0.010 C 
ATOM      6  C   LIG    1        1.529  -0.796  -1.810  0.00  0.00    +0.050 C 
ENDROOT
BRANCH   1   8
ATOM      7  C   LIG    1        0.767   1.320  -0.051  0.00  0.00    +0.020 C 
ATOM      8  C   LIG    1        0.002  -0.004   0.002  0.00  0.00    -0.060 C 
ATOM      9  C   LIG    1       -1.459   0.266   0.366  0.00  0.00    +0.030 C 
ATOM     10  C   LIG    1        0.631  -0.915   1.058  0.00  0.00    +0.040 C 
ENDBRANCH   1   8
BRANCH   6  11
ATOM     11  S   LIG    1        2.459  -1.775  -0.599  0.00  0.00    -0.200 S 
ATOM     12  H   LIG    1        3.703  -1.788  -1.110  0.00  0.00    +0.040 HD
ENDBRANCH   6  11
TORSDOF 2
ENDMDL
MODEL      259
REMARK  Name = ZINC000020476689
REMARK                            x       y       z     vdW  Elec       q    Type
REMARK                         _______ _______ _______ _____ _____    ______ ____
ROOT
ATOM      1  C   LIG    1       -0.017  -0.500  -1.445  0.00  0.00    +0.020 C 
ATOM      2  C   LIG    1       -0.770   0.506  -2.319  0.00  0.00    +0.030 C 
ATOM      3  C   LIG    1       -0.789   0.010  -3.766  0.00  0.00    +0.010 C 
ATOM      4  C   LIG    1        0.647  -0.133  -4.275  0.00  0.00    +0.010 C 
ATOM      5  C   LIG    1        1.400  -1.138  -3.402  0.00  0.00    +0.020 C 
ATOM      6  C   LIG    1        1.419  -0.643  -1.954  0.00  0.00    +0.060 C 
ENDROOT
BRANCH   1   8
ATOM      7  C   LIG    1        0.867   1.254   0.099  0.00  0.00    +0.020 C 
ATOM      8  C   LIG    1        0.002  -0.004   0.002  0.00  0.00    -0.060 C 
ATOM      9  C   LIG    1       -1.425   0.323   0.448  0.00  0.00    +0.030 C 
ATOM     10  C   LIG    1        0.583  -1.093   0.906  0.00  0.00    +0.040 C 
ENDBRANCH   1   8
BRANCH   6  11
ATOM     11  S   LIG    1        2.312  -1.835  -0.919  0.00  0.00    -0.220 S 
ATOM     12  H   LIG    1        3.537  -1.859  -1.473  0.00  0.00    +0.040 HD
ENDBRANCH   6  11
TORSDOF 2
ENDMDL
MODEL      260
REMARK  Name = ZINC000020476691
REMARK                            x       y       z     vdW  Elec       q    Type
REMARK                         _______ _______ _______ _____ _____    ______ ____
ROOT
ATOM      1  C   LIG    1        0.612  -0.558  -1.287  0.00  0.00    +0.020 C 
ATOM      2  C   LIG    1       -0.137   0.015  -2.493  0.00  0.00    +0.020 C 
ATOM      3  C   LIG    1        0.473  -0.539  -3.782  0.00  0.00    +0.000 C 
ATOM      4  C   LIG    1        1.948  -0.140  -3.861  0.00  0.00    +0.010 C 
ATOM      5  C   LIG    1        2.697  -0.712  -2.655  0.00  0.00    +0.010 C 
ATOM      6  C   LIG    1        2.087  -0.158  -1.366  0.00  0.00    +0.050 C 
ENDROOT
BRANCH   1   8
ATOM      7  C   LIG    1       -0.046   1.523  -0.071  0.00  0.00    +0.040 C 
ATOM      8  C   LIG    1        0.002  -0.004   0.002  0.00  0.00    -0.060 C 
ATOM      9  C   LIG    1       -1.417  -0.551   0.171  0.00  0.00    +0.030 C 
ATOM     10  C   LIG    1        0.859  -0.431   1.196  0.00  0.00    +0.020 C 
ENDBRANCH   1   8
BRANCH   6  11
ATOM     11  S   LIG    1        2.225   1.650  -1.360  0.00  0.00    -0.200 S 
ATOM     12  H   LIG    1        3.552   1.853  -1.433  0.00  0.00    +0.040 HD
ENDBRANCH   6  11
TORSDOF 2
ENDMDL
MODEL      261
REMARK  Name = ZINC000037287301
REMARK                            x       y       z     vdW  Elec       q    Type
REMARK                         _______ _______ _______ _____ _____    ______ ____
ROOT
ATOM      1  C   LIG    1        0.707  -0.490  -1.238  0.00  0.00    -0.060 A 
ATOM      2  C   LIG    1        0.036  -1.284  -2.148  0.00  0.00    +0.010 A 
ATOM      3  C   LIG    1        0.683  -1.730  -3.286  0.00  0.00    +0.020 A 
ATOM      4  C   LIG    1        2.001  -1.381  -3.513  0.00  0.00    -0.050 A 
ATOM      5  C   LIG    1        2.672  -0.586  -2.603  0.00  0.00    +0.020 A 
ATOM      6  C   LIG    1        2.024  -0.137  -1.467  0.00  0.00    +0.020 A 
ENDROOT
BRANCH   1   8
ATOM      7  C   LIG    1       -0.019   1.526   0.010  0.00  0.00    +0.040 C 
ATOM      8  C   LIG    1        0.002  -0.004   0.002  0.00  0.00    -0.030 C 
ATOM      9  C   LIG    1       -1.433  -0.534   0.013  0.00  0.00    +0.030 C 
ATOM     10  C   LIG    1        0.742  -0.511   1.242  0.00  0.00    +0.040 C 
ENDBRANCH   1   8
BRANCH   4  11
ATOM     11  C   LIG    1        2.707  -1.868  -4.752  0.00  0.00    -0.010 C 
ATOM     12  C   LIG    1        3.068  -0.827  -5.814  0.00  0.00    +0.090 C 
ATOM     13  C   LIG    1        4.165  -1.447  -4.946  0.00  0.00    +0.090 C 
BRANCH  11  14
ATOM     14  C   LIG    1        2.318  -3.208  -5.219  0.00  0.00    +0.240 C 
ATOM     15  N   LIG    1        2.018  -4.243  -5.580  0.00  0.00    -0.420 NA
ENDBRANCH  11  14
ENDBRANCH   4  11
TORSDOF 3
ENDMDL
MODEL      262
REMARK  Name = ZINC000001595727
REMARK                            x       y       z     vdW  Elec       q    Type
REMARK                         _______ _______ _______ _____ _____    ______ ____
ROOT
ATOM      1  C   LIG    1        1.476  -4.051  -2.532  0.00  0.00    +0.000 C 
ENDROOT
BRANCH   1   2
ATOM      2  C   LIG    1        1.455  -2.521  -2.524  0.00  0.00    +0.000 C 
BRANCH   2   3
ATOM      3  C   LIG    1        0.739  -2.027  -1.265  0.00  0.00    +0.000 C 
BRANCH   3   4
ATOM      4  C   LIG    1        0.718  -0.497  -1.257  0.00  0.00    +0.000 C 
BRANCH   4   6
ATOM      5  C   LIG    1       -0.019   1.526   0.010  0.00  0.00    +0.000 C 
ATOM      6  C   LIG    1        0.002  -0.004   0.002  0.00  0.00    -0.010 C 
ENDBRANCH   4   6
ENDBRANCH   3   4
ENDBRANCH   2   3
ENDBRANCH   1   2
BRANCH   1   7
ATOM      7  C   LIG    1        2.192  -4.544  -3.791  0.00  0.00    +0.000 C 
BRANCH   7   8
ATOM      8  C   LIG    1        2.213  -6.074  -3.800  0.00  0.00    +0.000 C 
BRANCH   8   9
ATOM      9  C   LIG    1        2.929  -6.567  -5.058  0.00  0.00    +0.030 C 
BRANCH   9  10
ATOM     10  C   LIG    1        2.950  -8.097  -5.067  0.00  0.00    +0.000 C 
BRANCH  10  11
ATOM     11  C   LIG    1        3.655  -8.583  -6.307  0.00  0.00    +0.440 C 
ATOM     12  O   LIG    1        4.593  -9.338  -6.211  0.00  0.00    -0.460 OA
ENDBRANCH  10  11
ENDBRANCH   9  10
ENDBRANCH   8   9
ENDBRANCH   7   8
ENDBRANCH   1   7
TORSDOF 9
ENDMDL
MODEL      263
REMARK  Name = ZINC000001677793
REMARK                            x       y       z     vdW  Elec       q    Type
REMARK                         _______ _______ _______ _____ _____    ______ ____
ROOT
ATOM      1  C   LIG    1        2.264  -4.584   3.704  0.00  0.00    +0.000 C 
ENDROOT
BRANCH   1   2
ATOM      2  C   LIG    1        1.524  -4.077   2.464  0.00  0.00    +0.000 C 
BRANCH   2   3
ATOM      3  C   LIG    1        1.503  -2.548   2.473  0.00  0.00    +0.000 C 
BRANCH   3   4
ATOM      4  C   LIG    1        0.763  -2.041   1.233  0.00  0.00    +0.000 C 
BRANCH   4   5
ATOM      5  C   LIG    1        0.742  -0.511   1.242  0.00  0.00    +0.000 C 
BRANCH   5   7
ATOM      6  C   LIG    1       -0.019   1.526   0.010  0.00  0.00    +0.000 C 
ATOM      7  C   LIG    1        0.002  -0.004   0.002  0.00  0.00    -0.010 C 
ENDBRANCH   5   7
ENDBRANCH   4   5
ENDBRANCH   3   4
ENDBRANCH   2   3
ENDBRANCH   1   2
BRANCH   1   8
ATOM      8  C   LIG    1        2.284  -6.114   3.695  0.00  0.00    +0.010 C 
BRANCH   8   9
ATOM      9  C   LIG    1        3.024  -6.621   4.935  0.00  0.00    +0.030 C 
BRANCH   9  10
ATOM     10  C   LIG    1        3.045  -8.151   4.926  0.00  0.00    -0.070 C 
ATOM     11  C   LIG    1        1.616  -8.681   5.063  0.00  0.00    +0.050 C 
BRANCH  10  12
ATOM     12  C   LIG    1        3.878  -8.648   6.080  0.00  0.00    +0.450 C 
ATOM     13  O   LIG    1        4.854  -9.328   5.871  0.00  0.00    -0.460 OA
ENDBRANCH  10  12
ENDBRANCH   9  10
ENDBRANCH   8   9
ENDBRANCH   1   8
TORSDOF 9
ENDMDL
MODEL      264
REMARK  Name = ZINC000001851025
REMARK                            x       y       z     vdW  Elec       q    Type
REMARK                         _______ _______ _______ _____ _____    ______ ____
ROOT
ATOM      1  C   LIG    1        2.264  -4.584   3.704  0.00  0.00    +0.000 C 
ENDROOT
BRANCH   1   2
ATOM      2  C   LIG    1        1.524  -4.077   2.464  0.00  0.00    +0.000 C 
BRANCH   2   3
ATOM      3  C   LIG    1        1.503  -2.548   2.473  0.00  0.00    +0.000 C 
BRANCH   3   4
ATOM      4  C   LIG    1        0.763  -2.041   1.233  0.00  0.00    +0.000 C 
BRANCH   4   5
ATOM      5  C   LIG    1        0.742  -0.511   1.242  0.00  0.00    +0.000 C 
BRANCH   5   7
ATOM      6  C   LIG    1       -0.019   1.526   0.010  0.00  0.00    +0.000 C 
ATOM      7  C   LIG    1        0.002  -0.004   0.002  0.00  0.00    -0.010 C 
ENDBRANCH   5   7
ENDBRANCH   4   5
ENDBRANCH   3   4
ENDBRANCH   2   3
ENDBRANCH   1   2
BRANCH   1   8
ATOM      8  C   LIG    1        2.284  -6.114   3.695  0.00  0.00    +0.010 C 
BRANCH   8   9
ATOM      9  C   LIG    1        3.024  -6.621   4.935  0.00  0.00    +0.030 C 
BRANCH   9  10
ATOM     10  C   LIG    1        3.045  -8.151   4.926  0.00  0.00    -0.070 C 
ATOM     11  C   LIG    1        3.868  -8.643   3.734  0.00  0.00    +0.050 C 
BRANCH  10  12
ATOM     12  C   LIG    1        3.664  -8.652   6.206  0.00  0.00    +0.450 C 
ATOM     13  O   LIG    1        3.027  -9.359   6.949  0.00  0.00    -0.460 OA
ENDBRANCH  10  12
ENDBRANCH   9  10
ENDBRANCH   8   9
ENDBRANCH   1   8
TORSDOF 9
ENDMDL
MODEL      265
REMARK  Name = ZINC000002039359
REMARK                            x       y       z     vdW  Elec       q    Type
REMARK                         _______ _______ _______ _____ _____    ______ ____
ROOT
ATOM      1  C   LIG    1       -4.263  -4.652   0.018  0.00  0.00    +0.000 C 
ENDROOT
BRANCH   1   2
ATOM      2  C   LIG    1       -2.827  -4.123   0.007  0.00  0.00    +0.000 C 
BRANCH   2   3
ATOM      3  C   LIG    1       -2.848  -2.593   0.015  0.00  0.00    +0.000 C 
BRANCH   3   4
ATOM      4  C   LIG    1       -1.413  -2.063   0.004  0.00  0.00    +0.000 C 
BRANCH   4   5
ATOM      5  C   LIG    1       -1.433  -0.534   0.013  0.00  0.00    +0.000 C 
BRANCH   5   7
ATOM      6  C   LIG    1       -0.019   1.526   0.010  0.00  0.00    +0.000 C 
ATOM      7  C   LIG    1        0.002  -0.004   0.002  0.00  0.00    -0.010 C 
ENDBRANCH   5   7
ENDBRANCH   4   5
ENDBRANCH   3   4
ENDBRANCH   2   3
ENDBRANCH   1   2
BRANCH   1   8
ATOM      8  C   LIG    1       -4.242  -6.182   0.009  0.00  0.00    +0.010 C 
BRANCH   8   9
ATOM      9  C   LIG    1       -5.677  -6.712   0.020  0.00  0.00    -0.020 C 
BRANCH   9  10
ATOM     10  C   LIG    1       -5.657  -8.242   0.012  0.00  0.00    +0.200 C 
ATOM     11  C   LIG    1       -7.088  -8.771  -0.103  0.00  0.00    +0.000 C 
BRANCH  10  12
ATOM     12  O   LIG    1       -5.069  -8.717   1.225  0.00  0.00    -0.560 OA
ATOM     13  H   LIG    1       -5.540  -8.442   2.024  0.00  0.00    +0.370 HD
ENDBRANCH  10  12
ENDBRANCH   9  10
ENDBRANCH   8   9
ENDBRANCH   1   8
TORSDOF 9
ENDMDL
MODEL      266
REMARK  Name = ZINC000002039358
REMARK                            x       y       z     vdW  Elec       q    Type
REMARK                         _______ _______ _______ _____ _____    ______ ____
ROOT
ATOM      1  C   LIG    1       -4.263  -4.652   0.018  0.00  0.00    +0.000 C 
ENDROOT
BRANCH   1   2
ATOM      2  C   LIG    1       -2.827  -4.123   0.007  0.00  0.00    +0.000 C 
BRANCH   2   3
ATOM      3  C   LIG    1       -2.848  -2.593   0.015  0.00  0.00    +0.000 C 
BRANCH   3   4
ATOM      4  C   LIG    1       -1.413  -2.063   0.004  0.00  0.00    +0.000 C 
BRANCH   4   5
ATOM      5  C   LIG    1       -1.433  -0.534   0.013  0.00  0.00    +0.000 C 
BRANCH   5   7
ATOM      6  C   LIG    1       -0.019   1.526   0.010  0.00  0.00    +0.000 C 
ATOM      7  C   LIG    1        0.002  -0.004   0.002  0.00  0.00    -0.010 C 
ENDBRANCH   5   7
ENDBRANCH   4   5
ENDBRANCH   3   4
ENDBRANCH   2   3
ENDBRANCH   1   2
BRANCH   1   8
ATOM      8  C   LIG    1       -4.242  -6.182   0.009  0.00  0.00    +0.010 C 
BRANCH   8   9
ATOM      9  C   LIG    1       -5.677  -6.712   0.020  0.00  0.00    -0.020 C 
BRANCH   9  10
ATOM     10  C   LIG    1       -5.657  -8.242   0.012  0.00  0.00    +0.200 C 
ATOM     11  C   LIG    1       -7.085  -8.772   0.148  0.00  0.00    +0.000 C 
BRANCH  10  12
ATOM     12  O   LIG    1       -5.092  -8.704  -1.217  0.00  0.00    -0.560 OA
ATOM     13  H   LIG    1       -5.578  -8.421  -2.004  0.00  0.00    +0.370 HD
ENDBRANCH  10  12
ENDBRANCH   9  10
ENDBRANCH   8   9
ENDBRANCH   1   8
TORSDOF 9
ENDMDL
MODEL      267
REMARK  Name = ZINC000003860657
REMARK                            x       y       z     vdW  Elec       q    Type
REMARK                         _______ _______ _______ _____ _____    ______ ____
ROOT
ATOM      1  C   LIG    1       -2.827  -4.123   0.007  0.00  0.00    +0.000 C 
ENDROOT
BRANCH   1   2
ATOM      2  C   LIG    1       -2.848  -2.593   0.015  0.00  0.00    +0.000 C 
BRANCH   2   3
ATOM      3  C   LIG    1       -1.413  -2.063   0.004  0.00  0.00    +0.000 C 
BRANCH   3   4
ATOM      4  C   LIG    1       -1.433  -0.534   0.013  0.00  0.00    +0.050 C 
BRANCH   4   5
ATOM      5  C   LIG    1        0.002  -0.004   0.002  0.00  0.00    +0.090 C 
BRANCH   5   6
ATOM      6  S   LIG    1       -0.022   1.810   0.012  0.00  0.00    -0.250 S 
ATOM      7  H   LIG    1        1.284   2.130   0.001  0.00  0.00    +0.090 HD
ENDBRANCH   5   6
ENDBRANCH   4   5
ENDBRANCH   3   4
ENDBRANCH   2   3
ENDBRANCH   1   2
BRANCH   1   8
ATOM      8  C   LIG    1       -4.263  -4.652   0.018  0.00  0.00    +0.000 C 
BRANCH   8   9
ATOM      9  C   LIG    1       -4.242  -6.182   0.009  0.00  0.00    +0.000 C 
BRANCH   9  10
ATOM     10  C   LIG    1       -5.677  -6.712   0.020  0.00  0.00    +0.050 C 
BRANCH  10  11
ATOM     11  C   LIG    1       -5.657  -8.242   0.012  0.00  0.00    +0.090 C 
BRANCH  11  12
ATOM     12  S   LIG    1       -7.358  -8.870   0.025  0.00  0.00    -0.250 S 
ATOM     13  H   LIG    1       -7.189 -10.204   0.016  0.00  0.00    +0.090 HD
ENDBRANCH  11  12
ENDBRANCH  10  11
ENDBRANCH   9  10
ENDBRANCH   8   9
ENDBRANCH   1   8
TORSDOF 10
ENDMDL
MODEL      268
REMARK  Name = ZINC000068604632
REMARK                            x       y       z     vdW  Elec       q    Type
REMARK                         _______ _______ _______ _____ _____    ______ ____
ROOT
ATOM      1  C   LIG    1       -2.827  -4.123   0.007  0.00  0.00    -0.060 C 
ATOM      2  C   LIG    1       -2.087  -4.630   1.246  0.00  0.00    +0.030 C 
ATOM      3  C   LIG    1       -2.111  -4.616  -1.252  0.00  0.00    +0.030 C 
ENDROOT
BRANCH   1   4
ATOM      4  C   LIG    1       -2.848  -2.593   0.015  0.00  0.00    +0.030 C 
BRANCH   4   5
ATOM      5  C   LIG    1       -1.413  -2.063   0.004  0.00  0.00    +0.020 C 
BRANCH   5   6
ATOM      6  C   LIG    1       -1.433  -0.534   0.013  0.00  0.00    +0.000 C 
BRANCH   6   8
ATOM      7  C   LIG    1       -0.019   1.526   0.010  0.00  0.00    +0.000 C 
ATOM      8  C   LIG    1        0.002  -0.004   0.002  0.00  0.00    -0.010 C 
ENDBRANCH   6   8
ENDBRANCH   5   6
ENDBRANCH   4   5
ENDBRANCH   1   4
BRANCH   1   9
ATOM      9  C   LIG    1       -4.263  -4.652   0.018  0.00  0.00    +0.200 C 
BRANCH   9  10
ATOM     10  C   LIG    1       -4.243  -6.124   0.010  0.00  0.00    +0.210 C 
ATOM     11  N   LIG    1       -4.227  -7.260   0.003  0.00  0.00    -0.440 NA
ENDBRANCH   9  10
ENDBRANCH   1   9
TORSDOF 6
ENDMDL
MODEL      269
REMARK  Name = ZINC000002390345
REMARK                            x       y       z     vdW  Elec       q    Type
REMARK                         _______ _______ _______ _____ _____    ______ ____
ROOT
ATOM      1  C   LIG    1       -2.797  -2.567  -0.111  0.00  0.00    -0.190 C 
ATOM      2  C   LIG    1       -3.898  -2.974  -0.102  0.00  0.00    -0.190 C 
ENDROOT
BRANCH   1   3
ATOM      3  C   LIG    1       -1.416  -2.058  -0.121  0.00  0.00    +0.160 C 
BRANCH   3   4
ATOM      4  C   LIG    1       -1.433  -0.534   0.013  0.00  0.00    +0.030 C 
BRANCH   4   6
ATOM      5  C   LIG    1       -0.019   1.526   0.010  0.00  0.00    +0.010 C 
ATOM      6  C   LIG    1        0.002  -0.004   0.002  0.00  0.00    -0.030 C 
ATOM      7  C   LIG    1        0.742  -0.511   1.242  0.00  0.00    +0.020 C 
ENDBRANCH   4   6
ENDBRANCH   3   4
ENDBRANCH   1   3
BRANCH   2   8
ATOM      8  C   LIG    1       -5.279  -3.483  -0.092  0.00  0.00    +0.160 C 
BRANCH   8   9
ATOM      9  C   LIG    1       -5.261  -5.007  -0.226  0.00  0.00    +0.030 C 
BRANCH   9  10
ATOM     10  C   LIG    1       -6.697  -5.537  -0.215  0.00  0.00    -0.030 C 
ATOM     11  C   LIG    1       -7.333  -5.258   1.148  0.00  0.00    +0.030 C 
ATOM     12  C   LIG    1       -6.686  -7.045  -0.474  0.00  0.00    +0.010 C 
ENDBRANCH   9  10
ENDBRANCH   8   9
ENDBRANCH   2   8
TORSDOF 6
ENDMDL
MODEL      270
REMARK  Name = ZINC000037678115
REMARK                            x       y       z     vdW  Elec       q    Type
REMARK                         _______ _______ _______ _____ _____    ______ ____
ROOT
ATOM      1  C   LIG    1        0.707  -0.490  -1.238  0.00  0.00    -0.080 A 
ATOM      2  C   LIG    1        2.026  -0.141  -1.464  0.00  0.00    +0.020 A 
ATOM      3  C   LIG    1        2.673  -0.587  -2.601  0.00  0.00    +0.040 A 
ATOM      4  C   LIG    1        2.002  -1.382  -3.513  0.00  0.00    -0.030 A 
ATOM      5  C   LIG    1        0.682  -1.730  -3.286  0.00  0.00    +0.040 A 
ATOM      6 CL   LIG    1        2.814  -1.942  -4.941  0.00  0.00    -0.070 Cl
ATOM      7  C   LIG    1        0.037  -1.289  -2.146  0.00  0.00    +0.050 A 
ENDROOT
BRANCH   1   8
ATOM      8  C   LIG    1        0.002  -0.004   0.002  0.00  0.00    +0.160 C 
BRANCH   8   9
ATOM      9  C   LIG    1        0.742  -0.511   1.242  0.00  0.00    -0.040 C 
ATOM     10  C   LIG    1        1.370   0.534   2.166  0.00  0.00    +0.010 C 
ATOM     11  C   LIG    1        0.114  -0.222   2.607  0.00  0.00    +0.040 C 
ENDBRANCH   8   9
BRANCH   8  12
ATOM     12  S   LIG    1       -0.022   1.810   0.012  0.00  0.00    -0.220 S 
ATOM     13  H   LIG    1        1.284   2.130   0.001  0.00  0.00    +0.090 HD
ENDBRANCH   8  12
ENDBRANCH   1   8
TORSDOF 3
ENDMDL
MODEL      271
REMARK  Name = ZINC000014806978
REMARK                            x       y       z     vdW  Elec       q    Type
REMARK                         _______ _______ _______ _____ _____    ______ ____
ROOT
ATOM      1  C   LIG    1        0.390   0.120  -3.861  0.00  0.00    -0.020 C 
ATOM      2  C   LIG    1        1.530   1.119  -4.070  0.00  0.00    +0.000 C 
ENDROOT
BRANCH   1   3
ATOM      3  C   LIG    1       -0.494   0.590  -2.703  0.00  0.00    +0.020 C 
BRANCH   3   4
ATOM      4  C   LIG    1        0.312   0.563  -1.403  0.00  0.00    +0.020 C 
BRANCH   4   6
ATOM      5  C   LIG    1       -0.950   2.500  -0.456  0.00  0.00    +0.050 C 
ATOM      6  C   LIG    1       -0.572   1.033  -0.245  0.00  0.00    -0.070 C 
BRANCH   6   7
ATOM      7  C   LIG    1        0.182   0.889   1.052  0.00  0.00    +0.440 C 
ATOM      8  O   LIG    1       -0.252   0.179   1.927  0.00  0.00    -0.460 OA
ENDBRANCH   6   7
ENDBRANCH   4   6
ENDBRANCH   3   4
ENDBRANCH   1   3
BRANCH   1   9
ATOM      9  C   LIG    1       -0.449   0.029  -5.137  0.00  0.00    +0.010 C 
BRANCH   9  10
ATOM     10  C   LIG    1        0.231  -0.920  -6.127  0.00  0.00    -0.070 C 
ATOM     11  C   LIG    1        1.672  -0.465  -6.362  0.00  0.00    +0.020 C 
ATOM     12  C   LIG    1       -0.532  -0.906  -7.453  0.00  0.00    +0.010 C 
ATOM     13  C   LIG    1        0.231  -2.339  -5.553  0.00  0.00    +0.020 C 
ENDBRANCH   9  10
ENDBRANCH   1   9
TORSDOF 6
ENDMDL
MODEL      272
REMARK  Name = ZINC000043199007
REMARK                            x       y       z     vdW  Elec       q    Type
REMARK                         _______ _______ _______ _____ _____    ______ ____
ROOT
ATOM      1  C   LIG    1       -4.634   0.341  -1.134  0.00  0.00    -0.050 C 
ATOM      2  C   LIG    1       -5.325   0.085   0.173  0.00  0.00    +0.060 C 
ATOM      3  C   LIG    1       -6.638  -0.075   0.281  0.00  0.00    -0.100 C 
ATOM      4  C   LIG    1       -7.498  -0.016  -0.905  0.00  0.00    +0.380 C 
ATOM      5  C   LIG    1       -6.886   0.490  -2.195  0.00  0.00    +0.020 C 
ATOM      6  O   LIG    1       -8.661  -0.359  -0.855  0.00  0.00    -0.460 OA
ATOM      7  C   LIG    1       -4.371   1.842  -1.274  0.00  0.00    +0.050 C 
ATOM      8  C   LIG    1       -5.487  -0.130  -2.311  0.00  0.00    +0.040 C 
ENDROOT
BRANCH   1   9
ATOM      9  C   LIG    1       -3.299  -0.406  -1.150  0.00  0.00    +0.040 C 
BRANCH   9  10
ATOM     10  C   LIG    1       -2.438   0.061   0.026  0.00  0.00    +0.050 C 
BRANCH  10  13
ATOM     11  C   LIG    1       -0.018   1.503   0.010  0.00  0.00    +0.080 C 
ATOM     12  C   LIG    1        0.002  -0.004   0.002  0.00  0.00    -0.130 C 
ATOM     13  C   LIG    1       -1.123  -0.674   0.009  0.00  0.00    -0.060 C 
ATOM     14  C   LIG    1        1.317  -0.740  -0.015  0.00  0.00    +0.070 C 
ENDBRANCH  10  13
ENDBRANCH   9  10
ENDBRANCH   1   9
TORSDOF 3
ENDMDL
MODEL      273
REMARK  Name = ZINC000043199006
REMARK                            x       y       z     vdW  Elec       q    Type
REMARK                         _______ _______ _______ _____ _____    ______ ____
ROOT
ATOM      1  C   LIG    1       -4.634   0.341  -1.134  0.00  0.00    -0.050 C 
ATOM      2  C   LIG    1       -4.373   1.816  -1.210  0.00  0.00    +0.060 C 
ATOM      3  C   LIG    1       -5.139   2.655  -1.899  0.00  0.00    -0.100 C 
ATOM      4  C   LIG    1       -6.302   2.163  -2.644  0.00  0.00    +0.380 C 
ATOM      5  C   LIG    1       -6.750   0.738  -2.392  0.00  0.00    +0.020 C 
ATOM      6  O   LIG    1       -6.886   2.873  -3.436  0.00  0.00    -0.460 OA
ATOM      7  C   LIG    1       -5.366   0.030   0.173  0.00  0.00    +0.050 C 
ATOM      8  C   LIG    1       -5.487  -0.130  -2.311  0.00  0.00    +0.040 C 
ENDROOT
BRANCH   1   9
ATOM      9  C   LIG    1       -3.299  -0.406  -1.150  0.00  0.00    +0.040 C 
BRANCH   9  10
ATOM     10  C   LIG    1       -2.438   0.061   0.026  0.00  0.00    +0.050 C 
BRANCH  10  13
ATOM     11  C   LIG    1       -0.018   1.503   0.010  0.00  0.00    +0.080 C 
ATOM     12  C   LIG    1        0.002  -0.004   0.002  0.00  0.00    -0.130 C 
ATOM     13  C   LIG    1       -1.123  -0.674   0.009  0.00  0.00    -0.060 C 
ATOM     14  C   LIG    1        1.317  -0.740  -0.015  0.00  0.00    +0.070 C 
ENDBRANCH  10  13
ENDBRANCH   9  10
ENDBRANCH   1   9
TORSDOF 3
ENDMDL
MODEL      274
REMARK  Name = ZINC000045071486
REMARK                            x       y       z     vdW  Elec       q    Type
REMARK                         _______ _______ _______ _____ _____    ______ ____
ROOT
ATOM      1  S   LIG    1        3.063  -2.396   1.286  0.00  0.00    -0.110 S 
ENDROOT
BRANCH   1   2
ATOM      2  C   LIG    1        2.997  -3.360   2.759  0.00  0.00    -0.090 A 
ATOM      3  C   LIG    1        1.843  -3.373   3.532  0.00  0.00    -0.020 A 
ATOM      4  C   LIG    1        1.795  -4.129   4.686  0.00  0.00    +0.030 A 
ATOM      5  C   LIG    1        2.894  -4.874   5.073  0.00  0.00    +0.000 A 
ATOM      6  C   LIG    1        4.045  -4.863   4.307  0.00  0.00    +0.030 A 
ATOM      7  C   LIG    1        4.098  -4.114   3.148  0.00  0.00    +0.030 A 
ENDBRANCH   1   2
BRANCH   1   8
ATOM      8  C   LIG    1        1.422  -1.625   1.229  0.00  0.00    +0.080 C 
BRANCH   8   9
ATOM      9  C   LIG    1        1.317  -0.740  -0.015  0.00  0.00    +0.030 C 
ATOM     10  C   LIG    1        1.398  -1.611  -1.269  0.00  0.00    +0.040 C 
BRANCH   9  12
ATOM     11  C   LIG    1       -0.016   1.306   0.009  0.00  0.00    +0.020 C 
ATOM     12  C   LIG    1        0.002  -0.004   0.002  0.00  0.00    -0.040 C 
ENDBRANCH   9  12
ENDBRANCH   8   9
ENDBRANCH   1   8
TORSDOF 4
ENDMDL
MODEL      275
REMARK  Name = ZINC000026516292
REMARK                            x       y       z     vdW  Elec       q    Type
REMARK                         _______ _______ _______ _____ _____    ______ ____
ROOT
ATOM      1  C   LIG    1       -1.414  -2.036   0.129  0.00  0.00    -0.080 A 
ATOM      2  C   LIG    1       -0.780  -2.795  -0.838  0.00  0.00    +0.010 A 
ATOM      3  C   LIG    1       -0.761  -4.173  -0.732  0.00  0.00    +0.040 A 
ATOM      4  C   LIG    1       -1.377  -4.793   0.341  0.00  0.00    -0.030 A 
ATOM      5  C   LIG    1       -2.011  -4.033   1.307  0.00  0.00    +0.040 A 
ATOM      6 CL   LIG    1       -1.354  -6.524   0.474  0.00  0.00    -0.070 Cl
ATOM      7  C   LIG    1       -2.024  -2.654   1.203  0.00  0.00    +0.050 A 
ENDROOT
BRANCH   1   8
ATOM      8  C   LIG    1       -1.433  -0.534   0.013  0.00  0.00    +0.130 C 
BRANCH   8  10
ATOM      9  C   LIG    1       -0.019   1.526   0.010  0.00  0.00    +0.030 C 
ATOM     10  C   LIG    1        0.002  -0.004   0.002  0.00  0.00    +0.020 C 
ENDBRANCH   8  10
BRANCH   8  11
ATOM     11  S   LIG    1       -2.265  -0.057  -1.527  0.00  0.00    -0.220 S 
ATOM     12  H   LIG    1       -1.507  -0.638  -2.473  0.00  0.00    +0.090 HD
ENDBRANCH   8  11
ENDBRANCH   1   8
TORSDOF 3
ENDMDL
MODEL      276
REMARK  Name = ZINC000075172798
REMARK                            x       y       z     vdW  Elec       q    Type
REMARK                         _______ _______ _______ _____ _____    ______ ____
ROOT
ATOM      1  C   LIG    1       -0.018   1.503   0.010  0.00  0.00    +0.210 C 
ATOM      2  C   LIG    1        0.002  -0.004   0.002  0.00  0.00    +0.140 A 
ATOM      3  N   LIG    1       -1.039  -0.746   0.003  0.00  0.00    -0.470 NA
ATOM      4  C   LIG    1       -0.867  -2.085  -0.005  0.00  0.00    +0.110 A 
ATOM      5  C   LIG    1       -1.849  -3.085  -0.007  0.00  0.00    +0.110 A 
ATOM      6  C   LIG    1       -1.473  -4.446  -0.016  0.00  0.00    +0.110 A 
ATOM      7  C   LIG    1       -0.051  -4.796  -0.025  0.00  0.00    -0.030 A 
ATOM      8  C   LIG    1        0.875  -3.806  -0.023  0.00  0.00    +0.110 A 
ATOM      9  C   LIG    1        0.488  -2.457  -0.014  0.00  0.00    -0.190 A 
ATOM     10  S   LIG    1        1.460  -0.985  -0.018  0.00  0.00    +0.060 S 
ENDROOT
BRANCH   6  11
ATOM     11  N   LIG    1       -2.397  -5.396  -0.018  0.00  0.00    -0.310 NA
ATOM     12  N   LIG    1       -2.091  -6.477  -0.025  0.00  0.00    +0.280 NA
ATOM     13  N   LIG    1       -1.786  -7.559  -0.033  0.00  0.00    -0.120 NA
ENDBRANCH   6  11
TORSDOF 1
ENDMDL
MODEL      277
REMARK  Name = ZINC000078062252
REMARK                            x       y       z     vdW  Elec       q    Type
REMARK                         _______ _______ _______ _____ _____    ______ ____
ROOT
ATOM      1  C   LIG    1        2.757  -3.441   2.321  0.00  0.00    -0.020 C 
ATOM      2  C   LIG    1        1.688  -4.520   2.135  0.00  0.00    +0.000 C 
ATOM      3  C   LIG    1        1.740  -5.497   3.312  0.00  0.00    +0.000 C 
ATOM      4  C   LIG    1        3.122  -6.153   3.368  0.00  0.00    +0.000 C 
ATOM      5  C   LIG    1        4.191  -5.075   3.554  0.00  0.00    +0.000 C 
ATOM      6  C   LIG    1        4.138  -4.097   2.377  0.00  0.00    +0.000 C 
ENDROOT
BRANCH   1   7
ATOM      7  C   LIG    1        2.705  -2.464   1.145  0.00  0.00    +0.000 C 
BRANCH   7   8
ATOM      8  C   LIG    1        1.370  -1.717   1.161  0.00  0.00    +0.010 C 
BRANCH   8   9
ATOM      9  C   LIG    1        1.317  -0.740  -0.015  0.00  0.00    +0.040 C 
BRANCH   9  11
ATOM     10  C   LIG    1       -0.016   1.306   0.009  0.00  0.00    +0.000 C 
ATOM     11  C   LIG    1        0.002  -0.004   0.002  0.00  0.00    -0.050 C 
ENDBRANCH   9  11
ENDBRANCH   8   9
ENDBRANCH   7   8
ENDBRANCH   1   7
TORSDOF 4
ENDMDL
MODEL      278
REMARK  Name = ZINC000020476624
REMARK                            x       y       z     vdW  Elec       q    Type
REMARK                         _______ _______ _______ _____ _____    ______ ____
ROOT
ATOM      1  C   LIG    1        0.707  -0.490  -1.238  0.00  0.00    -0.060 A 
ATOM      2  C   LIG    1        0.002  -0.623  -2.446  0.00  0.00    -0.040 A 
ATOM      3  C   LIG    1       -1.366  -0.310  -2.530  0.00  0.00    +0.020 A 
ATOM      4  C   LIG    1       -2.017  -0.451  -3.717  0.00  0.00    +0.010 A 
ATOM      5  C   LIG    1       -1.347  -0.902  -4.853  0.00  0.00    +0.000 A 
ATOM      6  C   LIG    1       -0.024  -1.216  -4.809  0.00  0.00    +0.030 A 
ATOM      7  C   LIG    1        0.682  -1.082  -3.601  0.00  0.00    -0.050 A 
ATOM      8  C   LIG    1        2.049  -1.395  -3.517  0.00  0.00    +0.030 A 
ATOM      9  C   LIG    1        2.701  -1.253  -2.330  0.00  0.00    +0.020 A 
ATOM     10  C   LIG    1        2.033  -0.797  -1.195  0.00  0.00    +0.040 A 
ENDROOT
BRANCH   1  12
ATOM     11  C   LIG    1       -0.019   1.526   0.010  0.00  0.00    +0.060 C 
ATOM     12  C   LIG    1        0.002  -0.004   0.002  0.00  0.00    +0.100 C 
BRANCH  12  13
ATOM     13  S   LIG    1        0.879  -0.605   1.472  0.00  0.00    -0.230 S 
ATOM     14  H   LIG    1        0.151  -0.103   2.485  0.00  0.00    +0.080 HD
ENDBRANCH  12  13
ENDBRANCH   1  12
TORSDOF 2
ENDMDL
MODEL      279
REMARK  Name = ZINC000005761298
REMARK                            x       y       z     vdW  Elec       q    Type
REMARK                         _______ _______ _______ _____ _____    ______ ____
ROOT
ATOM      1  C   LIG    1        2.132   0.024  -1.268  0.00  0.00    -0.080 A 
ATOM      2  C   LIG    1        2.999  -0.309  -0.243  0.00  0.00    +0.040 A 
ATOM      3  C   LIG    1        4.296   0.170  -0.253  0.00  0.00    +0.030 A 
ATOM      4  C   LIG    1        4.726   0.981  -1.287  0.00  0.00    -0.030 A 
ATOM      5  C   LIG    1        3.858   1.314  -2.312  0.00  0.00    +0.030 A 
ATOM      6 CL   LIG    1        6.355   1.582  -1.300  0.00  0.00    -0.070 Cl
ATOM      7  C   LIG    1        2.563   0.831  -2.304  0.00  0.00    +0.050 A 
ENDROOT
BRANCH   1   8
ATOM      8  C   LIG    1        0.718  -0.497  -1.257  0.00  0.00    +0.170 C 
BRANCH   8  10
ATOM      9  C   LIG    1       -0.019   1.526   0.010  0.00  0.00    +0.030 C 
ATOM     10  C   LIG    1        0.002  -0.004   0.002  0.00  0.00    +0.000 C 
ATOM     11  C   LIG    1       -1.433  -0.534   0.013  0.00  0.00    +0.020 C 
ENDBRANCH   8  10
BRANCH   8  12
ATOM     12  C   LIG    1        0.738  -1.969  -1.265  0.00  0.00    +0.210 C 
ATOM     13  N   LIG    1        0.754  -3.105  -1.271  0.00  0.00    -0.420 NA
ENDBRANCH   8  12
ENDBRANCH   1   8
TORSDOF 3
ENDMDL
MODEL      280
REMARK  Name = ZINC000045071484
REMARK                            x       y       z     vdW  Elec       q    Type
REMARK                         _______ _______ _______ _____ _____    ______ ____
ROOT
ATOM      1  S   LIG    1        3.038  -2.382  -1.365  0.00  0.00    -0.110 S 
ENDROOT
BRANCH   1   2
ATOM      2  C   LIG    1        2.944  -3.330  -2.848  0.00  0.00    -0.090 A 
ATOM      3  C   LIG    1        1.778  -3.325  -3.605  0.00  0.00    -0.020 A 
ATOM      4  C   LIG    1        1.708  -4.070  -4.766  0.00  0.00    +0.030 A 
ATOM      5  C   LIG    1        2.796  -4.819  -5.176  0.00  0.00    +0.000 A 
ATOM      6  C   LIG    1        3.958  -4.826  -4.424  0.00  0.00    +0.030 A 
ATOM      7  C   LIG    1        4.037  -4.079  -3.266  0.00  0.00    +0.030 A 
ENDBRANCH   1   2
BRANCH   1   8
ATOM      8  C   LIG    1        1.398  -1.611  -1.269  0.00  0.00    +0.080 C 
BRANCH   8   9
ATOM      9  C   LIG    1        1.317  -0.740  -0.015  0.00  0.00    +0.030 C 
ATOM     10  C   LIG    1        1.422  -1.625   1.229  0.00  0.00    +0.040 C 
BRANCH   9  12
ATOM     11  C   LIG    1       -0.016   1.306   0.009  0.00  0.00    +0.020 C 
ATOM     12  C   LIG    1        0.002  -0.004   0.002  0.00  0.00    -0.040 C 
ENDBRANCH   9  12
ENDBRANCH   8   9
ENDBRANCH   1   8
TORSDOF 4
ENDMDL
MODEL      281
REMARK  Name = ZINC000045072102
REMARK                            x       y       z     vdW  Elec       q    Type
REMARK                         _______ _______ _______ _____ _____    ______ ____
ROOT
ATOM      1  C   LIG    1        2.639  -2.540   1.071  0.00  0.00    -0.060 C 
ATOM      2  C   LIG    1        2.653  -3.699   2.092  0.00  0.00    +0.050 C 
ATOM      3  C   LIG    1        2.094  -4.901   1.291  0.00  0.00    +0.020 C 
ATOM      4  C   LIG    1        2.700  -4.700  -0.094  0.00  0.00    +0.370 C 
ATOM      5  O   LIG    1        3.119  -5.548  -0.845  0.00  0.00    -0.440 OA
ATOM      6  C   LIG    1        2.663  -3.199  -0.320  0.00  0.00    +0.020 C 
ENDROOT
BRANCH   1   7
ATOM      7  C   LIG    1        1.368  -1.706   1.238  0.00  0.00    +0.040 C 
BRANCH   7   8
ATOM      8  C   LIG    1        1.387  -0.543   0.244  0.00  0.00    +0.040 C 
BRANCH   8  10
ATOM      9  C   LIG    1        0.070   1.491   0.545  0.00  0.00    +0.010 C 
ATOM     10  C   LIG    1        0.078   0.201   0.317  0.00  0.00    -0.050 C 
ENDBRANCH   8  10
ENDBRANCH   7   8
ENDBRANCH   1   7
BRANCH   1  11
ATOM     11  C   LIG    1        3.876  -1.658   1.257  0.00  0.00    +0.030 C 
BRANCH  11  12
ATOM     12  C   LIG    1        3.877  -1.073   2.671  0.00  0.00    +0.040 C 
BRANCH  12  13
ATOM     13  C   LIG    1        5.146  -0.291   2.890  0.00  0.00    -0.050 C 
ATOM     14  C   LIG    1        5.087   0.960   3.273  0.00  0.00    +0.010 C 
ENDBRANCH  12  13
ENDBRANCH  11  12
ENDBRANCH   1  11
TORSDOF 6
ENDMDL
MODEL      282
REMARK  Name = ZINC000020476598
REMARK                            x       y       z     vdW  Elec       q    Type
REMARK                         _______ _______ _______ _____ _____    ______ ____
ROOT
ATOM      1  C   LIG    1       -1.412  -0.526   0.013  0.00  0.00    -0.070 A 
ATOM      2  C   LIG    1       -2.259  -0.204   1.056  0.00  0.00    +0.010 A 
ATOM      3  C   LIG    1       -3.556  -0.683   1.066  0.00  0.00    +0.030 A 
ATOM      4  C   LIG    1       -4.006  -1.482   0.032  0.00  0.00    -0.090 A 
ATOM      5  C   LIG    1       -3.159  -1.802  -1.012  0.00  0.00    -0.010 A 
ATOM      6  C   LIG    1       -1.863  -1.321  -1.024  0.00  0.00    +0.010 A 
ENDROOT
BRANCH   1   8
ATOM      7  C   LIG    1       -0.019   1.526   0.010  0.00  0.00    +0.030 C 
ATOM      8  C   LIG    1        0.002  -0.004   0.002  0.00  0.00    +0.020 C 
ATOM      9  C   LIG    1        0.742  -0.511   1.242  0.00  0.00    +0.040 C 
ENDBRANCH   1   8
BRANCH   4  10
ATOM     10  C   LIG    1       -5.419  -2.004   0.043  0.00  0.00    +0.130 C 
ATOM     11  C   LIG    1       -5.398  -3.534   0.041  0.00  0.00    +0.060 C 
BRANCH  10  12
ATOM     12  S   LIG    1       -6.295  -1.409  -1.430  0.00  0.00    -0.230 S 
ATOM     13  H   LIG    1       -5.565  -1.915  -2.441  0.00  0.00    +0.090 HD
ENDBRANCH  10  12
ENDBRANCH   4  10
TORSDOF 3
ENDMDL
MODEL      283
REMARK  Name = ZINC000026516294
REMARK                            x       y       z     vdW  Elec       q    Type
REMARK                         _______ _______ _______ _____ _____    ______ ____
ROOT
ATOM      1  C   LIG    1       -1.416  -2.035  -0.119  0.00  0.00    -0.080 A 
ATOM      2  C   LIG    1       -0.773  -2.805   0.832  0.00  0.00    +0.010 A 
ATOM      3  C   LIG    1       -0.757  -4.181   0.712  0.00  0.00    +0.040 A 
ATOM      4  C   LIG    1       -1.384  -4.789  -0.361  0.00  0.00    -0.030 A 
ATOM      5  C   LIG    1       -2.027  -4.018  -1.313  0.00  0.00    +0.040 A 
ATOM      6 CL   LIG    1       -1.365  -6.518  -0.513  0.00  0.00    -0.070 Cl
ATOM      7  C   LIG    1       -2.047  -2.642  -1.189  0.00  0.00    +0.050 A 
ENDROOT
BRANCH   1   8
ATOM      8  C   LIG    1       -1.433  -0.534   0.013  0.00  0.00    +0.130 C 
BRANCH   8  10
ATOM      9  C   LIG    1       -0.019   1.526   0.010  0.00  0.00    +0.030 C 
ATOM     10  C   LIG    1        0.002  -0.004   0.002  0.00  0.00    +0.020 C 
ENDBRANCH   8  10
BRANCH   8  11
ATOM     11  S   LIG    1       -2.236  -0.073   1.573  0.00  0.00    -0.220 S 
ATOM     12  H   LIG    1       -1.460  -0.665   2.499  0.00  0.00    +0.090 HD
ENDBRANCH   8  11
ENDBRANCH   1   8
TORSDOF 3
ENDMDL
MODEL      284
REMARK  Name = ZINC000095619429
REMARK                            x       y       z     vdW  Elec       q    Type
REMARK                         _______ _______ _______ _____ _____    ______ ____
ROOT
ATOM      1  C   LIG    1        1.524  -4.077   2.464  0.00  0.00    +0.020 C 
ENDROOT
BRANCH   1   2
ATOM      2  C   LIG    1        1.503  -2.548   2.473  0.00  0.00    +0.000 C 
BRANCH   2   3
ATOM      3  C   LIG    1        0.763  -2.041   1.233  0.00  0.00    +0.000 C 
BRANCH   3   4
ATOM      4  C   LIG    1        0.742  -0.511   1.242  0.00  0.00    +0.000 C 
BRANCH   4   6
ATOM      5  C   LIG    1       -0.019   1.526   0.010  0.00  0.00    +0.000 C 
ATOM      6  C   LIG    1        0.002  -0.004   0.002  0.00  0.00    -0.010 C 
ENDBRANCH   4   6
ENDBRANCH   3   4
ENDBRANCH   2   3
ENDBRANCH   1   2
BRANCH   1   7
ATOM      7  C   LIG    1        2.264  -4.584   3.704  0.00  0.00    +0.130 C 
BRANCH   7   8
ATOM      8  C   LIG    1        2.284  -6.091   3.696  0.00  0.00    -0.010 A 
ATOM      9  C   LIG    1        3.237  -6.862   3.141  0.00  0.00    -0.060 A 
ATOM     10  C   LIG    1        2.859  -8.206   3.365  0.00  0.00    -0.060 A 
ATOM     11  C   LIG    1        1.697  -8.176   4.043  0.00  0.00    +0.160 A 
ATOM     12  O   LIG    1        1.357  -6.892   4.245  0.00  0.00    -0.180 OA
ENDBRANCH   7   8
ENDBRANCH   1   7
TORSDOF 6
ENDMDL
MODEL      285
REMARK  Name = ZINC000095682079
REMARK                            x       y       z     vdW  Elec       q    Type
REMARK                         _______ _______ _______ _____ _____    ______ ____
ROOT
ATOM      1  C   LIG    1        2.284  -6.114   3.695  0.00  0.00    +0.050 C 
ATOM      2  C   LIG    1        3.123  -6.637   4.880  0.00  0.00    +0.040 C 
ATOM      3  C   LIG    1        2.353  -7.898   5.349  0.00  0.00    +0.030 C 
ATOM      4  C   LIG    1        0.875  -7.474   5.156  0.00  0.00    +0.050 C 
ATOM      5  C   LIG    1        0.880  -6.652   3.879  0.00  0.00    +0.140 C 
ATOM      6  N   LIG    1       -0.117  -6.451   3.103  0.00  0.00    -0.320 NA
ENDROOT
BRANCH   6   7
ATOM      7  O   LIG    1       -1.377  -7.022   3.406  0.00  0.00    -0.420 OA
ATOM      8  H   LIG    1       -2.068  -6.814   2.762  0.00  0.00    +0.400 HD
ENDBRANCH   6   7
BRANCH   1   9
ATOM      9  C   LIG    1        2.264  -4.584   3.704  0.00  0.00    +0.020 C 
BRANCH   9  10
ATOM     10  C   LIG    1        1.524  -4.077   2.464  0.00  0.00    +0.010 C 
BRANCH  10  11
ATOM     11  C   LIG    1        1.503  -2.548   2.473  0.00  0.00    +0.000 C 
BRANCH  11  12
ATOM     12  C   LIG    1        0.763  -2.041   1.233  0.00  0.00    +0.000 C 
BRANCH  12  13
ATOM     13  C   LIG    1        0.742  -0.511   1.242  0.00  0.00    +0.000 C 
BRANCH  13  15
ATOM     14  C   LIG    1       -0.019   1.526   0.010  0.00  0.00    +0.000 C 
ATOM     15  C   LIG    1        0.002  -0.004   0.002  0.00  0.00    -0.010 C 
ENDBRANCH  13  15
ENDBRANCH  12  13
ENDBRANCH  11  12
ENDBRANCH  10  11
ENDBRANCH   9  10
ENDBRANCH   1   9
TORSDOF 7
ENDMDL
MODEL      286
REMARK  Name = ZINC000095682078
REMARK                            x       y       z     vdW  Elec       q    Type
REMARK                         _______ _______ _______ _____ _____    ______ ____
ROOT
ATOM      1  C   LIG    1        2.284  -6.114   3.695  0.00  0.00    +0.050 C 
ATOM      2  C   LIG    1        2.930  -6.640   4.994  0.00  0.00    +0.040 C 
ATOM      3  C   LIG    1        3.743  -7.874   4.528  0.00  0.00    +0.030 C 
ATOM      4  C   LIG    1        4.278  -7.417   3.149  0.00  0.00    +0.050 C 
ATOM      5  C   LIG    1        3.136  -6.614   2.547  0.00  0.00    +0.140 C 
ATOM      6  N   LIG    1        2.933  -6.400   1.302  0.00  0.00    -0.320 NA
ENDROOT
BRANCH   6   7
ATOM      7  O   LIG    1        3.822  -6.934   0.338  0.00  0.00    -0.420 OA
ATOM      8  H   LIG    1        3.587  -6.720  -0.575  0.00  0.00    +0.400 HD
ENDBRANCH   6   7
BRANCH   1   9
ATOM      9  C   LIG    1        2.264  -4.584   3.704  0.00  0.00    +0.020 C 
BRANCH   9  10
ATOM     10  C   LIG    1        1.524  -4.077   2.464  0.00  0.00    +0.010 C 
BRANCH  10  11
ATOM     11  C   LIG    1        1.503  -2.548   2.473  0.00  0.00    +0.000 C 
BRANCH  11  12
ATOM     12  C   LIG    1        0.763  -2.041   1.233  0.00  0.00    +0.000 C 
BRANCH  12  13
ATOM     13  C   LIG    1        0.742  -0.511   1.242  0.00  0.00    +0.000 C 
BRANCH  13  15
ATOM     14  C   LIG    1       -0.019   1.526   0.010  0.00  0.00    +0.000 C 
ATOM     15  C   LIG    1        0.002  -0.004   0.002  0.00  0.00    -0.010 C 
ENDBRANCH  13  15
ENDBRANCH  12  13
ENDBRANCH  11  12
ENDBRANCH  10  11
ENDBRANCH   9  10
ENDBRANCH   1   9
TORSDOF 7
ENDMDL
MODEL      287
REMARK  Name = ZINC000100004985
REMARK                            x       y       z     vdW  Elec       q    Type
REMARK                         _______ _______ _______ _____ _____    ______ ____
ROOT
ATOM      1  C   LIG    1        2.264  -4.584   3.704  0.00  0.00    -0.020 C 
ENDROOT
BRANCH   1   2
ATOM      2  C   LIG    1        1.524  -4.077   2.464  0.00  0.00    +0.010 C 
BRANCH   2   3
ATOM      3  C   LIG    1        1.503  -2.548   2.473  0.00  0.00    +0.000 C 
BRANCH   3   4
ATOM      4  C   LIG    1        0.763  -2.041   1.233  0.00  0.00    +0.000 C 
BRANCH   4   5
ATOM      5  C   LIG    1        0.742  -0.511   1.242  0.00  0.00    +0.000 C 
BRANCH   5   7
ATOM      6  C   LIG    1       -0.019   1.526   0.010  0.00  0.00    +0.000 C 
ATOM      7  C   LIG    1        0.002  -0.004   0.002  0.00  0.00    -0.010 C 
ENDBRANCH   5   7
ENDBRANCH   4   5
ENDBRANCH   3   4
ENDBRANCH   2   3
ENDBRANCH   1   2
BRANCH   1   8
ATOM      8  C   LIG    1        2.284  -6.114   3.695  0.00  0.00    +0.200 C 
BRANCH   8   9
ATOM      9  O   LIG    1        3.053  -6.574   2.582  0.00  0.00    -0.560 OA
ATOM     10  H   LIG    1        3.973  -6.276   2.589  0.00  0.00    +0.370 HD
ENDBRANCH   8   9
BRANCH   8  11
ATOM     11  C   LIG    1        2.913  -6.623   4.994  0.00  0.00    -0.020 C 
BRANCH  11  12
ATOM     12  C   LIG    1        2.821  -8.149   5.042  0.00  0.00    +0.010 C 
ATOM     13  C   LIG    1        3.450  -8.658   6.340  0.00  0.00    +0.000 C 
ENDBRANCH  11  12
ENDBRANCH   8  11
ENDBRANCH   1   8
TORSDOF 9
ENDMDL
MODEL      288
REMARK  Name = ZINC000100046557
REMARK                            x       y       z     vdW  Elec       q    Type
REMARK                         _______ _______ _______ _____ _____    ______ ____
ROOT
ATOM      1  C   LIG    1        2.184  -6.102   3.762  0.00  0.00    +0.000 C 
ATOM      2  C   LIG    1        3.087  -6.726   2.678  0.00  0.00    +0.020 C 
ATOM      3  C   LIG    1        3.663  -7.992   3.362  0.00  0.00    +0.030 C 
ATOM      4  C   LIG    1        3.875  -7.512   4.819  0.00  0.00    +0.110 C 
ATOM      5  C   LIG    1        2.686  -6.608   5.098  0.00  0.00    +0.130 C 
ATOM      6  N   LIG    1        2.200  -6.327   6.247  0.00  0.00    -0.330 NA
ENDROOT
BRANCH   6   7
ATOM      7  O   LIG    1        1.014  -5.560   6.346  0.00  0.00    -0.410 OA
ATOM      8  H   LIG    1        0.725  -5.399   7.255  0.00  0.00    +0.400 HD
ENDBRANCH   6   7
BRANCH   1   9
ATOM      9  C   LIG    1        2.283  -4.576   3.710  0.00  0.00    +0.020 C 
BRANCH   9  10
ATOM     10  C   LIG    1        1.649  -4.067   2.414  0.00  0.00    +0.000 C 
BRANCH  10  11
ATOM     11  C   LIG    1        1.635  -2.537   2.420  0.00  0.00    +0.000 C 
BRANCH  11  12
ATOM     12  C   LIG    1        1.001  -2.028   1.124  0.00  0.00    +0.000 C 
BRANCH  12  13
ATOM     13  C   LIG    1        0.987  -0.498   1.129  0.00  0.00    +0.000 C 
BRANCH  13  15
ATOM     14  C   LIG    1        0.339   1.541  -0.161  0.00  0.00    +0.000 C 
ATOM     15  C   LIG    1        0.353   0.011  -0.166  0.00  0.00    -0.010 C 
ENDBRANCH  13  15
ENDBRANCH  12  13
ENDBRANCH  11  12
ENDBRANCH  10  11
ENDBRANCH   9  10
ENDBRANCH   1   9
TORSDOF 7
ENDMDL
MODEL      289
REMARK  Name = ZINC000100046555
REMARK                            x       y       z     vdW  Elec       q    Type
REMARK                         _______ _______ _______ _____ _____    ______ ____
ROOT
ATOM      1  C   LIG    1        2.131  -5.936   3.881  0.00  0.00    +0.000 C 
ATOM      2  C   LIG    1        0.678  -6.449   3.967  0.00  0.00    +0.020 C 
ATOM      3  C   LIG    1        0.810  -7.810   4.696  0.00  0.00    +0.030 C 
ATOM      4  C   LIG    1        1.933  -7.527   5.725  0.00  0.00    +0.110 C 
ATOM      5  C   LIG    1        2.906  -6.625   4.984  0.00  0.00    +0.130 C 
ATOM      6  N   LIG    1        4.150  -6.476   5.245  0.00  0.00    -0.330 NA
ENDROOT
BRANCH   6   7
ATOM      7  O   LIG    1        4.961  -5.682   4.398  0.00  0.00    -0.410 OA
ATOM      8  H   LIG    1        5.885  -5.628   4.676  0.00  0.00    +0.400 HD
ENDBRANCH   6   7
BRANCH   1   9
ATOM      9  C   LIG    1        2.163  -4.420   4.086  0.00  0.00    +0.020 C 
BRANCH   9  10
ATOM     10  C   LIG    1        1.496  -3.730   2.896  0.00  0.00    +0.000 C 
BRANCH  10  11
ATOM     11  C   LIG    1        1.639  -2.213   3.039  0.00  0.00    +0.000 C 
BRANCH  11  12
ATOM     12  C   LIG    1        0.971  -1.523   1.849  0.00  0.00    +0.000 C 
BRANCH  12  13
ATOM     13  C   LIG    1        1.115  -0.006   1.992  0.00  0.00    +0.000 C 
BRANCH  13  15
ATOM     14  C   LIG    1        0.591   2.201   0.945  0.00  0.00    +0.000 C 
ATOM     15  C   LIG    1        0.447   0.684   0.802  0.00  0.00    -0.010 C 
ENDBRANCH  13  15
ENDBRANCH  12  13
ENDBRANCH  11  12
ENDBRANCH  10  11
ENDBRANCH   9  10
ENDBRANCH   1   9
TORSDOF 7
ENDMDL
MODEL      290
REMARK  Name = ZINC000102311892
REMARK                            x       y       z     vdW  Elec       q    Type
REMARK                         _______ _______ _______ _____ _____    ______ ____
ROOT
ATOM      1  C   LIG    1        2.232  -4.532   3.712  0.00  0.00    -0.020 C 
ATOM      2  C   LIG    1        1.634  -5.343   4.549  0.00  0.00    -0.090 C 
ENDROOT
BRANCH   1   3
ATOM      3  C   LIG    1        1.462  -3.934   2.563  0.00  0.00    +0.040 C 
BRANCH   3   4
ATOM      4  C   LIG    1        1.635  -2.414   2.569  0.00  0.00    +0.010 C 
BRANCH   4   5
ATOM      5  C   LIG    1        0.854  -1.807   1.402  0.00  0.00    +0.000 C 
BRANCH   5   6
ATOM      6  C   LIG    1        1.027  -0.287   1.407  0.00  0.00    +0.000 C 
BRANCH   6   8
ATOM      7  C   LIG    1        0.419   1.841   0.246  0.00  0.00    +0.000 C 
ATOM      8  C   LIG    1        0.245   0.320   0.241  0.00  0.00    -0.010 C 
ENDBRANCH   6   8
ENDBRANCH   5   6
ENDBRANCH   4   5
ENDBRANCH   3   4
ENDBRANCH   1   3
BRANCH   2   9
ATOM      9  C   LIG    1        0.232  -5.818   4.268  0.00  0.00    +0.230 C 
BRANCH   9  10
ATOM     10  O   LIG    1       -0.663  -5.259   5.232  0.00  0.00    -0.560 OA
ATOM     11  H   LIG    1       -0.458  -5.501   6.145  0.00  0.00    +0.370 HD
ENDBRANCH   9  10
BRANCH   9  12
ATOM     12  C   LIG    1        0.184  -7.345   4.352  0.00  0.00    +0.000 C 
BRANCH  12  13
ATOM     13  C   LIG    1       -1.207  -7.834   3.945  0.00  0.00    -0.020 C 
ATOM     14  C   LIG    1       -1.295  -9.348   4.147  0.00  0.00    +0.010 C 
ATOM     15  C   LIG    1       -1.454  -7.502   2.471  0.00  0.00    +0.020 C 
ENDBRANCH  12  13
ENDBRANCH   9  12
ENDBRANCH   2   9
TORSDOF 9
ENDMDL
MODEL      291
REMARK  Name = ZINC000037224371
REMARK                            x       y       z     vdW  Elec       q    Type
REMARK                         _______ _______ _______ _____ _____    ______ ____
ROOT
ATOM      1  C   LIG    1        0.707  -0.490  -1.238  0.00  0.00    -0.080 A 
ATOM      2  C   LIG    1       -0.011  -0.719  -2.397  0.00  0.00    +0.020 A 
ATOM      3  C   LIG    1        0.636  -1.164  -3.534  0.00  0.00    +0.030 A 
ATOM      4  C   LIG    1        2.002  -1.381  -3.513  0.00  0.00    -0.090 A 
ATOM      5  C   LIG    1        2.720  -1.151  -2.354  0.00  0.00    -0.010 A 
ATOM      6  C   LIG    1        2.073  -0.702  -1.218  0.00  0.00    +0.010 A 
ENDROOT
BRANCH   1   8
ATOM      7  C   LIG    1       -0.019   1.526   0.010  0.00  0.00    +0.030 C 
ATOM      8  C   LIG    1        0.002  -0.004   0.002  0.00  0.00    +0.050 C 
ENDBRANCH   1   8
BRANCH   4   9
ATOM      9  C   LIG    1        2.707  -1.868  -4.752  0.00  0.00    +0.130 C 
BRANCH   9  10
ATOM     10  C   LIG    1        3.380  -3.211  -4.463  0.00  0.00    +0.020 C 
ATOM     11  C   LIG    1        3.989  -3.765  -5.752  0.00  0.00    +0.030 C 
ENDBRANCH   9  10
BRANCH   9  12
ATOM     12  S   LIG    1        3.963  -0.657  -5.248  0.00  0.00    -0.230 S 
ATOM     13  H   LIG    1        4.775  -0.608  -4.177  0.00  0.00    +0.090 HD
ENDBRANCH   9  12
ENDBRANCH   4   9
TORSDOF 4
ENDMDL
MODEL      292
REMARK  Name = ZINC000037224370
REMARK                            x       y       z     vdW  Elec       q    Type
REMARK                         _______ _______ _______ _____ _____    ______ ____
ROOT
ATOM      1  C   LIG    1        0.707  -0.490  -1.238  0.00  0.00    -0.080 A 
ATOM      2  C   LIG    1       -0.011  -0.719  -2.397  0.00  0.00    +0.020 A 
ATOM      3  C   LIG    1        0.636  -1.164  -3.534  0.00  0.00    +0.030 A 
ATOM      4  C   LIG    1        2.002  -1.381  -3.513  0.00  0.00    -0.090 A 
ATOM      5  C   LIG    1        2.720  -1.151  -2.354  0.00  0.00    -0.010 A 
ATOM      6  C   LIG    1        2.073  -0.702  -1.218  0.00  0.00    +0.010 A 
ENDROOT
BRANCH   1   8
ATOM      7  C   LIG    1       -0.019   1.526   0.010  0.00  0.00    +0.030 C 
ATOM      8  C   LIG    1        0.002  -0.004   0.002  0.00  0.00    +0.050 C 
ENDBRANCH   1   8
BRANCH   4   9
ATOM      9  C   LIG    1        2.707  -1.868  -4.752  0.00  0.00    +0.130 C 
BRANCH   9  10
ATOM     10  C   LIG    1        3.767  -0.846  -5.170  0.00  0.00    +0.020 C 
ATOM     11  C   LIG    1        4.396  -1.278  -6.496  0.00  0.00    +0.030 C 
ENDBRANCH   9  10
BRANCH   9  12
ATOM     12  S   LIG    1        3.504  -3.460  -4.409  0.00  0.00    -0.230 S 
ATOM     13  H   LIG    1        4.357  -3.163  -3.412  0.00  0.00    +0.090 HD
ENDBRANCH   9  12
ENDBRANCH   4   9
TORSDOF 4
ENDMDL
MODEL      293
REMARK  Name = ZINC000169836301
REMARK                            x       y       z     vdW  Elec       q    Type
REMARK                         _______ _______ _______ _____ _____    ______ ____
ROOT
ATOM      1  C   LIG    1        2.288  -0.083  -1.542  0.00  0.00    -0.030 C 
ATOM      2  C   LIG    1        3.293  -0.916  -1.654  0.00  0.00    -0.060 C 
ENDROOT
BRANCH   1   3
ATOM      3  C   LIG    1        0.874  -0.605  -1.531  0.00  0.00    -0.220 C 
BRANCH   3   5
ATOM      4  C   LIG    1       -0.023   1.859   0.012  0.00  0.00    -0.240 C 
ATOM      5 SI   LIG    1        0.002  -0.004   0.002  0.00  0.00    +1.020 Si
ATOM      6  C   LIG    1       -1.746  -0.649   0.015  0.00  0.00    -0.240 C 
ATOM      7  C   LIG    1        0.903  -0.621   1.511  0.00  0.00    -0.240 C 
ENDBRANCH   3   5
ENDBRANCH   1   3
BRANCH   2   8
ATOM      8  C   LIG    1        4.706  -0.395  -1.665  0.00  0.00    +0.060 C 
BRANCH   8   9
ATOM      9  C   LIG    1        5.516  -1.094  -0.572  0.00  0.00    +0.030 C 
BRANCH   9  10
ATOM     10  C   LIG    1        6.952  -0.564  -0.582  0.00  0.00    +0.190 C 
BRANCH  10  11
ATOM     11  C   LIG    1        7.731  -1.237   0.470  0.00  0.00    +0.200 C 
ATOM     12  N   LIG    1        8.332  -1.756   1.282  0.00  0.00    -0.440 NA
ENDBRANCH  10  11
ENDBRANCH   9  10
ENDBRANCH   8   9
ENDBRANCH   2   8
TORSDOF 6
ENDMDL
MODEL      294
REMARK  Name = ZINC000001259401
REMARK                            x       y       z     vdW  Elec       q    Type
REMARK                         _______ _______ _______ _____ _____    ______ ____
ROOT
ATOM      1  C   LIG    1        0.062  -4.256  -0.021  0.00  0.00    -0.040 A 
ATOM      2  C   LIG    1        0.072  -4.947  -1.232  0.00  0.00    +0.050 A 
ATOM      3  C   LIG    1        0.092  -6.329  -1.243  0.00  0.00    +0.030 A 
ATOM      4  C   LIG    1        0.102  -7.034  -0.057  0.00  0.00    +0.070 A 
ATOM      5  C   LIG    1        0.091  -6.353   1.163  0.00  0.00    -0.020 A 
ATOM      6  C   LIG    1        0.077  -4.959   1.179  0.00  0.00    +0.070 A 
ENDROOT
BRANCH   1  11
ATOM      7  C   LIG    1       -0.018   1.503   0.010  0.00  0.00    +0.090 C 
ATOM      8  C   LIG    1        0.002  -0.004   0.002  0.00  0.00    -0.080 A 
ATOM      9  C   LIG    1        0.006  -0.686  -1.201  0.00  0.00    +0.010 A 
ATOM     10  C   LIG    1        0.025  -2.067  -1.214  0.00  0.00    +0.030 A 
ATOM     11  C   LIG    1        0.041  -2.772  -0.013  0.00  0.00    -0.060 A 
ATOM     12  C   LIG    1        0.037  -2.080   1.196  0.00  0.00    +0.030 A 
ATOM     13  C   LIG    1        0.023  -0.700   1.198  0.00  0.00    +0.010 A 
ENDBRANCH   1  11
BRANCH   5  14
ATOM     14  C   LIG    1        0.101  -7.085   2.394  0.00  0.00    +0.250 C 
ATOM     15  N   LIG    1        0.109  -7.665   3.370  0.00  0.00    -0.410 NA
ENDBRANCH   5  14
TORSDOF 2
ENDMDL
MODEL      295
REMARK  Name = ZINC000100096964
REMARK                            x       y       z     vdW  Elec       q    Type
REMARK                         _______ _______ _______ _____ _____    ______ ____
ROOT
ATOM      1  N   LIG    1        0.058  -4.142  -0.021  0.00  0.00    -0.480 NA
ATOM      2  C   LIG    1        0.868  -4.786   0.770  0.00  0.00    +0.310 C 
ENDROOT
BRANCH   1   7
ATOM      3  C   LIG    1       -0.018   1.503   0.010  0.00  0.00    +0.090 C 
ATOM      4  C   LIG    1        0.002  -0.004   0.002  0.00  0.00    -0.090 A 
ATOM      5  C   LIG    1        0.006  -0.686  -1.202  0.00  0.00    +0.020 A 
ATOM      6  C   LIG    1        0.024  -2.065  -1.217  0.00  0.00    +0.030 A 
ATOM      7  C   LIG    1        0.039  -2.773  -0.013  0.00  0.00    +0.070 A 
ATOM      8  C   LIG    1        0.036  -2.078   1.198  0.00  0.00    -0.030 A 
ATOM      9  C   LIG    1        0.023  -0.699   1.198  0.00  0.00    +0.020 A 
ENDBRANCH   1   7
BRANCH   2  10
ATOM     10  C   LIG    1        0.888  -6.259   0.761  0.00  0.00    -0.080 A 
ATOM     11  C   LIG    1        0.043  -6.968  -0.097  0.00  0.00    +0.060 A 
ATOM     12  C   LIG    1        0.067  -8.347  -0.099  0.00  0.00    +0.000 A 
ATOM     13  C   LIG    1        0.925  -9.029   0.746  0.00  0.00    +0.030 A 
ATOM     14  C   LIG    1        1.765  -8.333   1.599  0.00  0.00    +0.000 A 
ATOM     15  C   LIG    1        1.756  -6.954   1.608  0.00  0.00    +0.040 A 
ENDBRANCH   2  10
TORSDOF 2
ENDMDL
MODEL      296
REMARK  Name = ZINC000020476542
REMARK                            x       y       z     vdW  Elec       q    Type
REMARK                         _______ _______ _______ _____ _____    ______ ____
ROOT
ATOM      1  C   LIG    1       -1.412  -0.526   0.013  0.00  0.00    -0.080 A 
ATOM      2  C   LIG    1       -2.257  -0.195   1.070  0.00  0.00    -0.010 A 
ATOM      3  C   LIG    1       -3.540  -0.650   1.110  0.00  0.00    +0.030 A 
ATOM      4  C   LIG    1       -4.021  -1.464   0.072  0.00  0.00    -0.050 A 
ATOM      5  C   LIG    1       -5.340  -1.952   0.078  0.00  0.00    +0.020 A 
ATOM      6  C   LIG    1       -5.771  -2.739  -0.945  0.00  0.00    +0.010 A 
ATOM      7  C   LIG    1       -4.926  -3.069  -2.003  0.00  0.00    +0.020 A 
ATOM      8  C   LIG    1       -3.643  -2.615  -2.043  0.00  0.00    +0.020 A 
ATOM      9  C   LIG    1       -3.161  -1.800  -1.004  0.00  0.00    -0.050 A 
ATOM     10  C   LIG    1       -1.845  -1.308  -1.013  0.00  0.00    +0.040 A 
ENDROOT
BRANCH   1  12
ATOM     11  C   LIG    1       -0.019   1.526   0.010  0.00  0.00    +0.060 C 
ATOM     12  C   LIG    1        0.002  -0.004   0.002  0.00  0.00    +0.130 C 
BRANCH  12  13
ATOM     13  S   LIG    1        0.879  -0.605   1.472  0.00  0.00    -0.230 S 
ATOM     14  H   LIG    1        0.151  -0.103   2.485  0.00  0.00    +0.090 HD
ENDBRANCH  12  13
ENDBRANCH   1  12
TORSDOF 2
ENDMDL
MODEL      297
REMARK  Name = ZINC000020476543
REMARK                            x       y       z     vdW  Elec       q    Type
REMARK                         _______ _______ _______ _____ _____    ______ ____
ROOT
ATOM      1  C   LIG    1        0.707  -0.490  -1.238  0.00  0.00    -0.080 A 
ATOM      2  C   LIG    1        2.036  -0.133  -1.456  0.00  0.00    -0.010 A 
ATOM      3  C   LIG    1        2.703  -0.555  -2.566  0.00  0.00    +0.030 A 
ATOM      4  C   LIG    1        2.043  -1.363  -3.507  0.00  0.00    -0.050 A 
ATOM      5  C   LIG    1        2.698  -1.819  -4.664  0.00  0.00    +0.020 A 
ATOM      6  C   LIG    1        2.028  -2.600  -5.553  0.00  0.00    +0.010 A 
ATOM      7  C   LIG    1        0.698  -2.958  -5.335  0.00  0.00    +0.020 A 
ATOM      8  C   LIG    1        0.032  -2.535  -4.226  0.00  0.00    +0.020 A 
ATOM      9  C   LIG    1        0.691  -1.727  -3.285  0.00  0.00    -0.050 A 
ATOM     10  C   LIG    1        0.038  -1.276  -2.125  0.00  0.00    +0.040 A 
ENDROOT
BRANCH   1  12
ATOM     11  C   LIG    1       -0.019   1.526   0.010  0.00  0.00    +0.060 C 
ATOM     12  C   LIG    1        0.002  -0.004   0.002  0.00  0.00    +0.130 C 
BRANCH  12  13
ATOM     13  S   LIG    1        0.879  -0.605   1.472  0.00  0.00    -0.230 S 
ATOM     14  H   LIG    1        2.106  -0.071   1.331  0.00  0.00    +0.090 HD
ENDBRANCH  12  13
ENDBRANCH   1  12
TORSDOF 2
ENDMDL
MODEL      298
REMARK  Name = ZINC000004760378
REMARK                            x       y       z     vdW  Elec       q    Type
REMARK                         _______ _______ _______ _____ _____    ______ ____
ROOT
ATOM      1  C   LIG    1       -2.769  -2.792   0.005  0.00  0.00    -0.210 C 
ATOM      2  C   LIG    1       -3.452  -2.812  -1.133  0.00  0.00    -0.040 C 
ATOM      3  C   LIG    1       -4.925  -3.087  -1.203  0.00  0.00    +0.080 C 
ATOM      4  C   LIG    1       -5.404  -3.844   0.035  0.00  0.00    -0.060 C 
ATOM      5  C   LIG    1       -4.954  -3.084   1.292  0.00  0.00    +0.030 C 
ATOM      6  C   LIG    1       -4.799  -5.250   0.041  0.00  0.00    +0.030 C 
ATOM      7  C   LIG    1       -6.930  -3.944   0.016  0.00  0.00    +0.040 C 
ATOM      8  C   LIG    1       -2.712  -2.545  -2.418  0.00  0.00    +0.100 C 
ATOM      9  C   LIG    1       -3.439  -3.061   1.282  0.00  0.00    +0.400 C 
ATOM     10  O   LIG    1       -2.802  -3.251   2.297  0.00  0.00    -0.460 OA
ENDROOT
BRANCH   1  11
ATOM     11  C   LIG    1       -1.292  -2.497  -0.016  0.00  0.00    +0.080 C 
BRANCH  11  12
ATOM     12  C   LIG    1       -1.069  -0.996   0.180  0.00  0.00    +0.010 C 
BRANCH  12  14
ATOM     13  C   LIG    1        0.654   0.805   0.355  0.00  0.00    +0.000 C 
ATOM     14  C   LIG    1        0.431  -0.696   0.159  0.00  0.00    -0.010 C 
ENDBRANCH  12  14
ENDBRANCH  11  12
ENDBRANCH   1  11
TORSDOF 3
ENDMDL
MODEL      299
REMARK  Name = ZINC000102311894
REMARK                            x       y       z     vdW  Elec       q    Type
REMARK                         _______ _______ _______ _____ _____    ______ ____
ROOT
ATOM      1  C   LIG    1        2.205  -4.698   3.581  0.00  0.00    -0.020 C 
ATOM      2  C   LIG    1        1.633  -5.362   4.555  0.00  0.00    -0.090 C 
ENDROOT
BRANCH   1   3
ATOM      3  C   LIG    1        1.427  -4.374   2.331  0.00  0.00    +0.030 C 
BRANCH   3   4
ATOM      4  C   LIG    1        1.521  -2.874   2.047  0.00  0.00    +0.010 C 
BRANCH   4   5
ATOM      5  C   LIG    1        0.731  -2.545   0.778  0.00  0.00    +0.000 C 
BRANCH   5   6
ATOM      6  C   LIG    1        0.825  -1.045   0.493  0.00  0.00    +0.000 C 
BRANCH   6   8
ATOM      7  C   LIG    1        0.130   0.785  -1.060  0.00  0.00    +0.000 C 
ATOM      8  C   LIG    1        0.036  -0.716  -0.775  0.00  0.00    -0.010 C 
ENDBRANCH   6   8
ENDBRANCH   5   6
ENDBRANCH   4   5
ENDBRANCH   3   4
ENDBRANCH   1   3
BRANCH   2   9
ATOM      9  C   LIG    1        0.252  -5.935   4.367  0.00  0.00    +0.230 C 
BRANCH   9  10
ATOM     10  O   LIG    1        0.270  -7.331   4.670  0.00  0.00    -0.560 OA
ATOM     11  H   LIG    1        0.614  -7.538   5.550  0.00  0.00    +0.370 HD
ENDBRANCH   9  10
BRANCH   9  12
ATOM     12  C   LIG    1       -0.728  -5.223   5.302  0.00  0.00    +0.000 C 
BRANCH  12  13
ATOM     13  C   LIG    1       -2.150  -5.711   5.018  0.00  0.00    -0.020 C 
ATOM     14  C   LIG    1       -2.573  -5.262   3.618  0.00  0.00    +0.010 C 
ATOM     15  C   LIG    1       -3.108  -5.120   6.054  0.00  0.00    +0.000 C 
ENDBRANCH  12  13
ENDBRANCH   9  12
ENDBRANCH   2   9
TORSDOF 9
ENDMDL
MODEL      300
REMARK  Name = ZINC000004501347
REMARK                            x       y       z     vdW  Elec       q    Type
REMARK                         _______ _______ _______ _____ _____    ______ ____
ROOT
ATOM      1  C   LIG    1        1.524  -4.077   2.464  0.00  0.00    +0.060 C 
ENDROOT
BRANCH   1   2
ATOM      2  C   LIG    1        2.264  -4.584   3.704  0.00  0.00    -0.010 C 
ATOM      3  C   LIG    1        2.177  -6.111   3.761  0.00  0.00    +0.040 C 
ATOM      4  C   LIG    1        1.622  -3.990   4.959  0.00  0.00    +0.050 C 
BRANCH   2   5
ATOM      5  S   LIG    1        4.004  -4.080   3.617  0.00  0.00    -0.240 S 
ATOM      6  H   LIG    1        4.522  -4.585   4.751  0.00  0.00    +0.080 HD
ENDBRANCH   2   5
ENDBRANCH   1   2
BRANCH   1   7
ATOM      7  C   LIG    1        1.503  -2.548   2.473  0.00  0.00    +0.010 C 
BRANCH   7   8
ATOM      8  C   LIG    1        0.763  -2.041   1.233  0.00  0.00    +0.000 C 
BRANCH   8   9
ATOM      9  C   LIG    1        0.742  -0.511   1.242  0.00  0.00    +0.000 C 
BRANCH   9  11
ATOM     10  C   LIG    1       -0.019   1.526   0.010  0.00  0.00    +0.000 C 
ATOM     11  C   LIG    1        0.002  -0.004   0.002  0.00  0.00    -0.010 C 
ENDBRANCH   9  11
ENDBRANCH   8   9
ENDBRANCH   7   8
ENDBRANCH   1   7
TORSDOF 6
ENDMDL
MODEL      301
REMARK  Name = ZINC000002166827
REMARK                            x       y       z     vdW  Elec       q    Type
REMARK                         _______ _______ _______ _____ _____    ______ ____
ROOT
ATOM      1  C   LIG    1       -4.242  -6.159   0.009  0.00  0.00    -0.140 A 
ATOM      2  C   LIG    1       -4.239  -6.843  -1.193  0.00  0.00    +0.050 A 
ATOM      3  C   LIG    1       -4.220  -8.223  -1.204  0.00  0.00    -0.080 A 
ATOM      4  C   LIG    1       -4.205  -8.926  -0.006  0.00  0.00    +0.210 A 
ATOM      5  C   LIG    1       -4.208  -8.236   1.200  0.00  0.00    -0.080 A 
ATOM      6  C   LIG    1       -4.221  -6.856   1.204  0.00  0.00    +0.050 A 
ENDROOT
BRANCH   4   7
ATOM      7  N   LIG    1       -4.185 -10.323  -0.013  0.00  0.00    -0.880 N 
ATOM      8  H   LIG    1       -4.175 -10.812   0.824  0.00  0.00    +0.400 HD
ATOM      9  H   LIG    1       -4.182 -10.803  -0.856  0.00  0.00    +0.400 HD
ENDBRANCH   4   7
BRANCH   1  10
ATOM     10  C   LIG    1       -4.263  -4.652   0.018  0.00  0.00    +0.070 C 
BRANCH  10  11
ATOM     11  C   LIG    1       -2.827  -4.123   0.007  0.00  0.00    +0.010 C 
BRANCH  11  12
ATOM     12  C   LIG    1       -2.848  -2.593   0.015  0.00  0.00    +0.000 C 
BRANCH  12  13
ATOM     13  C   LIG    1       -1.413  -2.063   0.004  0.00  0.00    +0.000 C 
BRANCH  13  14
ATOM     14  C   LIG    1       -1.433  -0.534   0.013  0.00  0.00    +0.000 C 
BRANCH  14  16
ATOM     15  C   LIG    1       -0.019   1.526   0.010  0.00  0.00    +0.000 C 
ATOM     16  C   LIG    1        0.002  -0.004   0.002  0.00  0.00    -0.010 C 
ENDBRANCH  14  16
ENDBRANCH  13  14
ENDBRANCH  12  13
ENDBRANCH  11  12
ENDBRANCH  10  11
ENDBRANCH   1  10
TORSDOF 7
ENDMDL
MODEL      302
REMARK  Name = ZINC000002168407
REMARK                            x       y       z     vdW  Elec       q    Type
REMARK                         _______ _______ _______ _____ _____    ______ ____
ROOT
ATOM      1  C   LIG    1       -2.848  -2.593   0.015  0.00  0.00    +0.000 C 
ENDROOT
BRANCH   1   2
ATOM      2  C   LIG    1       -1.413  -2.063   0.004  0.00  0.00    +0.000 C 
BRANCH   2   3
ATOM      3  C   LIG    1       -1.433  -0.534   0.013  0.00  0.00    +0.000 C 
BRANCH   3   5
ATOM      4  C   LIG    1       -0.019   1.526   0.010  0.00  0.00    +0.000 C 
ATOM      5  C   LIG    1        0.002  -0.004   0.002  0.00  0.00    -0.010 C 
ENDBRANCH   3   5
ENDBRANCH   2   3
ENDBRANCH   1   2
BRANCH   1   6
ATOM      6  C   LIG    1       -2.827  -4.123   0.007  0.00  0.00    +0.010 C 
BRANCH   6   7
ATOM      7  C   LIG    1       -4.263  -4.652   0.018  0.00  0.00    +0.040 C 
BRANCH   7   8
ATOM      8  C   LIG    1       -4.242  -6.182   0.009  0.00  0.00    +0.080 C 
BRANCH   8   9
ATOM      9  S   LIG    1       -5.944  -6.810   0.022  0.00  0.00    -0.270 S 
ATOM     10  C   LIG    1       -5.715  -8.610   0.010  0.00  0.00    +0.140 C 
ENDBRANCH   8   9
ENDBRANCH   7   8
ENDBRANCH   6   7
ENDBRANCH   1   6
TORSDOF 7
ENDMDL
MODEL      303
REMARK  Name = ZINC000002556847
REMARK                            x       y       z     vdW  Elec       q    Type
REMARK                         _______ _______ _______ _____ _____    ______ ____
ROOT
ATOM      1  C   LIG    1        2.264  -4.584   3.704  0.00  0.00    +0.000 C 
ENDROOT
BRANCH   1   2
ATOM      2  C   LIG    1        1.524  -4.077   2.464  0.00  0.00    +0.020 C 
BRANCH   2   3
ATOM      3  C   LIG    1        1.503  -2.548   2.473  0.00  0.00    +0.000 C 
BRANCH   3   4
ATOM      4  C   LIG    1        0.763  -2.041   1.233  0.00  0.00    +0.000 C 
BRANCH   4   5
ATOM      5  C   LIG    1        0.742  -0.511   1.242  0.00  0.00    +0.000 C 
BRANCH   5   7
ATOM      6  C   LIG    1       -0.019   1.526   0.010  0.00  0.00    +0.000 C 
ATOM      7  C   LIG    1        0.002  -0.004   0.002  0.00  0.00    -0.010 C 
ENDBRANCH   5   7
ENDBRANCH   4   5
ENDBRANCH   3   4
ENDBRANCH   2   3
ENDBRANCH   1   2
BRANCH   1   8
ATOM      8  C   LIG    1        2.284  -6.114   3.695  0.00  0.00    +0.280 C 
BRANCH   8   9
ATOM      9  N   LIG    1        2.993  -6.599   4.882  0.00  0.00    -0.450 N 
ATOM     10  C   LIG    1        4.332  -6.841   4.964  0.00  0.00    +0.140 A 
ATOM     11  C   LIG    1        4.607  -7.275   6.211  0.00  0.00    -0.070 A 
ATOM     12  C   LIG    1        3.392  -7.303   6.925  0.00  0.00    -0.070 A 
ATOM     13  C   LIG    1        2.423  -6.879   6.089  0.00  0.00    +0.140 A 
ENDBRANCH   8   9
ENDBRANCH   1   8
TORSDOF 7
ENDMDL
MODEL      304
REMARK  Name = ZINC000100245964
REMARK                            x       y       z     vdW  Elec       q    Type
REMARK                         _______ _______ _______ _____ _____    ______ ____
ROOT
ATOM      1  C   LIG    1        1.476  -4.051  -2.532  0.00  0.00    +0.020 C 
ENDROOT
BRANCH   1   2
ATOM      2  C   LIG    1        1.455  -2.521  -2.524  0.00  0.00    +0.000 C 
BRANCH   2   3
ATOM      3  C   LIG    1        0.739  -2.027  -1.265  0.00  0.00    +0.000 C 
BRANCH   3   4
ATOM      4  C   LIG    1        0.718  -0.497  -1.257  0.00  0.00    +0.000 C 
BRANCH   4   6
ATOM      5  C   LIG    1       -0.019   1.526   0.010  0.00  0.00    +0.000 C 
ATOM      6  C   LIG    1        0.002  -0.004   0.002  0.00  0.00    -0.010 C 
ENDBRANCH   4   6
ENDBRANCH   3   4
ENDBRANCH   2   3
ENDBRANCH   1   2
BRANCH   1   7
ATOM      7  C   LIG    1        2.192  -4.544  -3.791  0.00  0.00    +0.030 C 
BRANCH   7   8
ATOM      8  C   LIG    1        2.213  -6.074  -3.800  0.00  0.00    +0.090 C 
BRANCH   8   9
ATOM      9  S   LIG    1        3.062  -6.659  -5.292  0.00  0.00    -0.220 S 
BRANCH   9  10
ATOM     10  C   LIG    1        2.986  -8.463  -5.124  0.00  0.00    +0.260 C 
BRANCH  10  11
ATOM     11  C   LIG    1        3.645  -9.092  -6.280  0.00  0.00    +0.220 C 
ATOM     12  N   LIG    1        4.154  -9.577  -7.172  0.00  0.00    -0.400 NA
ENDBRANCH  10  11
ENDBRANCH   9  10
ENDBRANCH   8   9
ENDBRANCH   7   8
ENDBRANCH   1   7
TORSDOF 9
ENDMDL
MODEL      305
REMARK  Name = ZINC000002077769
REMARK                            x       y       z     vdW  Elec       q    Type
REMARK                         _______ _______ _______ _____ _____    ______ ____
ROOT
ATOM      1  C   LIG    1        2.284  -6.114   3.695  0.00  0.00    +0.210 C 
ENDROOT
BRANCH   1   2
ATOM      2  C   LIG    1        2.913  -6.623   4.994  0.00  0.00    -0.050 C 
ATOM      3  C   LIG    1        2.027  -6.249   6.208  0.00  0.00    +0.020 C 
ATOM      4  C   LIG    1        2.439  -7.301   7.268  0.00  0.00    +0.000 C 
ATOM      5  C   LIG    1        2.644  -8.596   6.456  0.00  0.00    -0.010 C 
ATOM      6  C   LIG    1        2.946  -8.165   5.010  0.00  0.00    +0.020 C 
ENDBRANCH   1   2
BRANCH   1   7
ATOM      7  O   LIG    1        3.053  -6.574   2.582  0.00  0.00    -0.560 OA
ATOM      8  H   LIG    1        3.973  -6.276   2.589  0.00  0.00    +0.370 HD
ENDBRANCH   1   7
BRANCH   1   9
ATOM      9  C   LIG    1        2.264  -4.584   3.704  0.00  0.00    -0.020 C 
BRANCH   9  10
ATOM     10  C   LIG    1        1.524  -4.077   2.464  0.00  0.00    +0.010 C 
BRANCH  10  11
ATOM     11  C   LIG    1        1.503  -2.548   2.473  0.00  0.00    +0.000 C 
BRANCH  11  12
ATOM     12  C   LIG    1        0.763  -2.041   1.233  0.00  0.00    +0.000 C 
BRANCH  12  13
ATOM     13  C   LIG    1        0.742  -0.511   1.242  0.00  0.00    +0.000 C 
BRANCH  13  15
ATOM     14  C   LIG    1       -0.019   1.526   0.010  0.00  0.00    +0.000 C 
ATOM     15  C   LIG    1        0.002  -0.004   0.002  0.00  0.00    -0.010 C 
ENDBRANCH  13  15
ENDBRANCH  12  13
ENDBRANCH  11  12
ENDBRANCH  10  11
ENDBRANCH   9  10
ENDBRANCH   1   9
TORSDOF 8
ENDMDL
MODEL      306
REMARK  Name = ZINC000002012798
REMARK                            x       y       z     vdW  Elec       q    Type
REMARK                         _______ _______ _______ _____ _____    ______ ____
ROOT
ATOM      1  C   LIG    1        2.284  -6.091   3.696  0.00  0.00    -0.090 A 
ATOM      2  C   LIG    1        1.259  -6.798   4.295  0.00  0.00    +0.030 A 
ATOM      3  C   LIG    1        1.275  -8.180   4.289  0.00  0.00    -0.010 A 
ATOM      4  C   LIG    1        2.321  -8.857   3.680  0.00  0.00    +0.100 A 
ATOM      5  C   LIG    1        3.349  -8.145   3.078  0.00  0.00    -0.010 A 
ATOM      6  C   LIG    1        3.325  -6.764   3.083  0.00  0.00    +0.030 A 
ENDROOT
BRANCH   4   7
ATOM      7  O   LIG    1        2.340 -10.216   3.672  0.00  0.00    -0.500 OA
ATOM      8  H   LIG    1        1.899 -10.611   2.907  0.00  0.00    +0.390 HD
ENDBRANCH   4   7
BRANCH   1   9
ATOM      9  C   LIG    1        2.264  -4.584   3.704  0.00  0.00    +0.060 C 
BRANCH   9  10
ATOM     10  C   LIG    1        1.524  -4.077   2.464  0.00  0.00    +0.010 C 
BRANCH  10  11
ATOM     11  C   LIG    1        1.503  -2.548   2.473  0.00  0.00    +0.000 C 
BRANCH  11  12
ATOM     12  C   LIG    1        0.763  -2.041   1.233  0.00  0.00    +0.000 C 
BRANCH  12  13
ATOM     13  C   LIG    1        0.742  -0.511   1.242  0.00  0.00    +0.000 C 
BRANCH  13  15
ATOM     14  C   LIG    1       -0.019   1.526   0.010  0.00  0.00    +0.000 C 
ATOM     15  C   LIG    1        0.002  -0.004   0.002  0.00  0.00    -0.010 C 
ENDBRANCH  13  15
ENDBRANCH  12  13
ENDBRANCH  11  12
ENDBRANCH  10  11
ENDBRANCH   9  10
ENDBRANCH   1   9
TORSDOF 7
ENDMDL
MODEL      307
REMARK  Name = ZINC000001894380
REMARK                            x       y       z     vdW  Elec       q    Type
REMARK                         _______ _______ _______ _____ _____    ______ ____
ROOT
ATOM      1  C   LIG    1        2.284  -6.114   3.695  0.00  0.00    +0.000 C 
ATOM      2  C   LIG    1        0.856  -6.644   3.832  0.00  0.00    +0.020 C 
ATOM      3  C   LIG    1        0.876  -8.174   3.824  0.00  0.00    +0.000 C 
ATOM      4  C   LIG    1        1.722  -8.679   4.994  0.00  0.00    +0.010 C 
ATOM      5  C   LIG    1        3.151  -8.149   4.858  0.00  0.00    -0.020 C 
ATOM      6  C   LIG    1        3.130  -6.619   4.866  0.00  0.00    +0.160 C 
ENDROOT
BRANCH   6   7
ATOM      7  O   LIG    1        2.566  -6.157   6.095  0.00  0.00    -0.560 OA
ATOM      8  H   LIG    1        3.051  -6.440   6.882  0.00  0.00    +0.370 HD
ENDBRANCH   6   7
BRANCH   1   9
ATOM      9  C   LIG    1        2.264  -4.584   3.704  0.00  0.00    +0.020 C 
BRANCH   9  10
ATOM     10  C   LIG    1        1.524  -4.077   2.464  0.00  0.00    +0.000 C 
BRANCH  10  11
ATOM     11  C   LIG    1        1.503  -2.548   2.473  0.00  0.00    +0.000 C 
BRANCH  11  12
ATOM     12  C   LIG    1        0.763  -2.041   1.233  0.00  0.00    +0.000 C 
BRANCH  12  13
ATOM     13  C   LIG    1        0.742  -0.511   1.242  0.00  0.00    +0.000 C 
BRANCH  13  15
ATOM     14  C   LIG    1       -0.019   1.526   0.010  0.00  0.00    +0.000 C 
ATOM     15  C   LIG    1        0.002  -0.004   0.002  0.00  0.00    -0.010 C 
ENDBRANCH  13  15
ENDBRANCH  12  13
ENDBRANCH  11  12
ENDBRANCH  10  11
ENDBRANCH   9  10
ENDBRANCH   1   9
TORSDOF 7
ENDMDL
MODEL      308
REMARK  Name = ZINC000095686543
REMARK                            x       y       z     vdW  Elec       q    Type
REMARK                         _______ _______ _______ _____ _____    ______ ____
ROOT
ATOM      1  C   LIG    1        2.284  -6.114   3.695  0.00  0.00    +0.000 C 
ATOM      2  C   LIG    1        3.107  -6.606   2.503  0.00  0.00    +0.020 C 
ATOM      3  C   LIG    1        3.128  -8.136   2.495  0.00  0.00    +0.000 C 
ATOM      4  C   LIG    1        3.757  -8.645   3.793  0.00  0.00    +0.010 C 
ATOM      5  C   LIG    1        2.934  -8.153   4.986  0.00  0.00    -0.020 C 
ATOM      6  C   LIG    1        2.913  -6.623   4.994  0.00  0.00    +0.160 C 
ENDROOT
BRANCH   6   7
ATOM      7  O   LIG    1        4.250  -6.129   5.101  0.00  0.00    -0.560 OA
ATOM      8  H   LIG    1        4.711  -6.412   5.903  0.00  0.00    +0.370 HD
ENDBRANCH   6   7
BRANCH   1   9
ATOM      9  C   LIG    1        2.264  -4.584   3.704  0.00  0.00    +0.020 C 
BRANCH   9  10
ATOM     10  C   LIG    1        1.524  -4.077   2.464  0.00  0.00    +0.000 C 
BRANCH  10  11
ATOM     11  C   LIG    1        1.503  -2.548   2.473  0.00  0.00    +0.000 C 
BRANCH  11  12
ATOM     12  C   LIG    1        0.763  -2.041   1.233  0.00  0.00    +0.000 C 
BRANCH  12  13
ATOM     13  C   LIG    1        0.742  -0.511   1.242  0.00  0.00    +0.000 C 
BRANCH  13  15
ATOM     14  C   LIG    1       -0.019   1.526   0.010  0.00  0.00    +0.000 C 
ATOM     15  C   LIG    1        0.002  -0.004   0.002  0.00  0.00    -0.010 C 
ENDBRANCH  13  15
ENDBRANCH  12  13
ENDBRANCH  11  12
ENDBRANCH  10  11
ENDBRANCH   9  10
ENDBRANCH   1   9
TORSDOF 7
ENDMDL
MODEL      309
REMARK  Name = ZINC000001691447
REMARK                            x       y       z     vdW  Elec       q    Type
REMARK                         _______ _______ _______ _____ _____    ______ ____
ROOT
ATOM      1  C   LIG    1        2.264  -4.584   3.704  0.00  0.00    +0.040 C 
ENDROOT
BRANCH   1   2
ATOM      2  C   LIG    1        1.524  -4.077   2.464  0.00  0.00    +0.000 C 
BRANCH   2   3
ATOM      3  C   LIG    1        1.503  -2.548   2.473  0.00  0.00    +0.000 C 
BRANCH   3   4
ATOM      4  C   LIG    1        0.763  -2.041   1.233  0.00  0.00    +0.000 C 
BRANCH   4   5
ATOM      5  C   LIG    1        0.742  -0.511   1.242  0.00  0.00    +0.000 C 
BRANCH   5   7
ATOM      6  C   LIG    1       -0.019   1.526   0.010  0.00  0.00    +0.000 C 
ATOM      7  C   LIG    1        0.002  -0.004   0.002  0.00  0.00    -0.010 C 
ENDBRANCH   5   7
ENDBRANCH   4   5
ENDBRANCH   3   4
ENDBRANCH   2   3
ENDBRANCH   1   2
BRANCH   1   8
ATOM      8  C   LIG    1        2.284  -6.114   3.695  0.00  0.00    +0.080 C 
BRANCH   8   9
ATOM      9  S   LIG    1        3.162  -6.715   5.165  0.00  0.00    -0.250 S 
BRANCH   9  10
ATOM     10  C   LIG    1        3.082  -8.518   4.979  0.00  0.00    +0.090 C 
BRANCH  10  11
ATOM     11  C   LIG    1        3.791  -9.184   6.160  0.00  0.00    +0.230 C 
BRANCH  11  12
ATOM     12  C   LIG    1        3.726 -10.647   6.009  0.00  0.00    +0.210 C 
ATOM     13  N   LIG    1        3.676 -11.776   5.893  0.00  0.00    -0.420 NA
ENDBRANCH  11  12
ENDBRANCH  10  11
ENDBRANCH   9  10
ENDBRANCH   8   9
ENDBRANCH   1   8
TORSDOF 10
ENDMDL
MODEL      310
REMARK  Name = ZINC000001894375
REMARK                            x       y       z     vdW  Elec       q    Type
REMARK                         _______ _______ _______ _____ _____    ______ ____
ROOT
ATOM      1  C   LIG    1        2.284  -6.114   3.695  0.00  0.00    +0.000 C 
ATOM      2  C   LIG    1        0.856  -6.644   3.832  0.00  0.00    +0.010 C 
ATOM      3  C   LIG    1        0.876  -8.174   3.824  0.00  0.00    +0.000 C 
ATOM      4  C   LIG    1        1.722  -8.679   4.994  0.00  0.00    +0.000 C 
ATOM      5  C   LIG    1        3.151  -8.149   4.858  0.00  0.00    -0.020 C 
ATOM      6  C   LIG    1        3.130  -6.619   4.866  0.00  0.00    +0.160 C 
ENDROOT
BRANCH   6   7
ATOM      7  O   LIG    1        4.464  -6.124   4.739  0.00  0.00    -0.570 OA
ATOM      8  H   LIG    1        5.058  -6.405   5.449  0.00  0.00    +0.380 HD
ENDBRANCH   6   7
BRANCH   1   9
ATOM      9  C   LIG    1        2.264  -4.584   3.704  0.00  0.00    +0.020 C 
BRANCH   9  10
ATOM     10  C   LIG    1        1.524  -4.077   2.464  0.00  0.00    +0.000 C 
BRANCH  10  11
ATOM     11  C   LIG    1        1.503  -2.548   2.473  0.00  0.00    +0.000 C 
BRANCH  11  12
ATOM     12  C   LIG    1        0.763  -2.041   1.233  0.00  0.00    +0.000 C 
BRANCH  12  13
ATOM     13  C   LIG    1        0.742  -0.511   1.242  0.00  0.00    +0.000 C 
BRANCH  13  15
ATOM     14  C   LIG    1       -0.019   1.526   0.010  0.00  0.00    +0.000 C 
ATOM     15  C   LIG    1        0.002  -0.004   0.002  0.00  0.00    -0.010 C 
ENDBRANCH  13  15
ENDBRANCH  12  13
ENDBRANCH  11  12
ENDBRANCH  10  11
ENDBRANCH   9  10
ENDBRANCH   1   9
TORSDOF 7
ENDMDL
MODEL      311
REMARK  Name = ZINC000725245047
REMARK                            x       y       z     vdW  Elec       q    Type
REMARK                         _______ _______ _______ _____ _____    ______ ____
ROOT
ATOM      1  C   LIG    1       -0.018   1.503   0.010  0.00  0.00    +0.100 C 
ATOM      2  C   LIG    1        0.002  -0.004   0.002  0.00  0.00    -0.060 A 
ATOM      3  C   LIG    1        0.006  -0.689  -1.196  0.00  0.00    +0.010 A 
ATOM      4  C   LIG    1        0.025  -2.072  -1.205  0.00  0.00    +0.020 A 
ATOM      5  C   LIG    1        0.040  -2.777  -0.015  0.00  0.00    +0.000 A 
ATOM      6  C   LIG    1        0.036  -2.104   1.190  0.00  0.00    +0.040 A 
ATOM      7  C   LIG    1        0.023  -0.709   1.205  0.00  0.00    -0.050 A 
ENDROOT
BRANCH   7   8
ATOM      8  C   LIG    1        0.020   0.020   2.495  0.00  0.00    +0.020 A 
ATOM      9  C   LIG    1       -1.029   0.803   2.925  0.00  0.00    -0.170 A 
ATOM     10  S   LIG    1       -0.629   1.483   4.497  0.00  0.00    +0.260 S 
ATOM     11  C   LIG    1        0.888   0.705   4.506  0.00  0.00    -0.050 A 
ATOM     12  C   LIG    1        1.070  -0.018   3.401  0.00  0.00    +0.020 A 
BRANCH   9  13
ATOM     13  C   LIG    1       -2.248   1.028   2.208  0.00  0.00    +0.280 C 
ATOM     14  N   LIG    1       -3.215   1.206   1.639  0.00  0.00    -0.400 NA
ENDBRANCH   9  13
ENDBRANCH   7   8
TORSDOF 2
ENDMDL
MODEL      312
REMARK  Name = ZINC000725244969
REMARK                            x       y       z     vdW  Elec       q    Type
REMARK                         _______ _______ _______ _____ _____    ______ ____
ROOT
ATOM      1  C   LIG    1       -0.018   1.503   0.010  0.00  0.00    +0.090 C 
ATOM      2  C   LIG    1        0.002  -0.004   0.002  0.00  0.00    -0.080 A 
ATOM      3  C   LIG    1        0.006  -0.688  -1.200  0.00  0.00    +0.020 A 
ATOM      4  C   LIG    1        0.025  -2.071  -1.216  0.00  0.00    +0.020 A 
ATOM      5  C   LIG    1        0.040  -2.777  -0.031  0.00  0.00    +0.020 A 
ATOM      6  C   LIG    1        0.036  -2.094   1.185  0.00  0.00    -0.040 A 
ATOM      7  C   LIG    1        0.023  -0.699   1.194  0.00  0.00    +0.030 A 
ENDROOT
BRANCH   6   8
ATOM      8  C   LIG    1        0.053  -2.845   2.461  0.00  0.00    +0.010 A 
ATOM      9  C   LIG    1       -0.807  -3.884   2.746  0.00  0.00    -0.170 A 
ATOM     10  S   LIG    1       -0.453  -4.497   4.355  0.00  0.00    +0.260 S 
ATOM     11  C   LIG    1        0.801  -3.361   4.568  0.00  0.00    -0.050 A 
ATOM     12  C   LIG    1        0.940  -2.584   3.495  0.00  0.00    +0.020 A 
BRANCH   9  13
ATOM     13  C   LIG    1       -1.826  -4.384   1.871  0.00  0.00    +0.280 C 
ATOM     14  N   LIG    1       -2.633  -4.780   1.178  0.00  0.00    -0.400 NA
ENDBRANCH   9  13
ENDBRANCH   6   8
TORSDOF 2
ENDMDL
MODEL      313
REMARK  Name = ZINC000252677937
REMARK                            x       y       z     vdW  Elec       q    Type
REMARK                         _______ _______ _______ _____ _____    ______ ____
ROOT
ATOM      1  C   LIG    1        1.454  -0.379   1.977  0.00  0.00    -0.050 C 
ATOM      2  C   LIG    1        1.411   1.097   2.376  0.00  0.00    +0.030 C 
ATOM      3  C   LIG    1        2.570  -0.598   0.953  0.00  0.00    +0.020 C 
ENDROOT
BRANCH   1   4
ATOM      4  C   LIG    1        1.724  -1.234   3.216  0.00  0.00    +0.000 C 
ATOM      5  C   LIG    1        1.768  -2.711   2.817  0.00  0.00    +0.010 C 
ATOM      6  C   LIG    1        2.038  -3.566   4.057  0.00  0.00    +0.000 C 
ATOM      7  C   LIG    1        3.381  -3.164   4.671  0.00  0.00    +0.000 C 
ATOM      8  C   LIG    1        3.337  -1.688   5.070  0.00  0.00    +0.000 C 
ATOM      9  C   LIG    1        3.067  -0.832   3.831  0.00  0.00    +0.020 C 
ENDBRANCH   1   4
BRANCH   1  10
ATOM     10  C   LIG    1        0.112  -0.781   1.362  0.00  0.00    +0.120 C 
BRANCH  10  12
ATOM     11  C   LIG    1       -0.266   1.456   0.071  0.00  0.00    +0.080 C 
ATOM     12  C   LIG    1       -0.088  -0.041   0.065  0.00  0.00    +0.140 C 
ATOM     13  N   LIG    1       -0.108  -0.683  -1.042  0.00  0.00    -0.340 NA
BRANCH  13  14
ATOM     14  O   LIG    1       -0.296   0.013  -2.260  0.00  0.00    -0.420 OA
ATOM     15  H   LIG    1       -0.297  -0.556  -3.042  0.00  0.00    +0.400 HD
ENDBRANCH  13  14
ENDBRANCH  10  12
ENDBRANCH   1  10
TORSDOF 4
ENDMDL
MODEL      314
REMARK  Name = ZINC000000272702
REMARK                            x       y       z     vdW  Elec       q    Type
REMARK                         _______ _______ _______ _____ _____    ______ ____
ROOT
ATOM      1  C   LIG    1       -0.046   1.502  -0.009  0.00  0.00    +0.090 C 
ATOM      2  C   LIG    1       -0.018  -0.004  -0.012  0.00  0.00    -0.090 A 
ATOM      3  C   LIG    1       -0.283  -0.695  -1.181  0.00  0.00    +0.020 A 
ATOM      4  C   LIG    1       -0.259  -2.075  -1.192  0.00  0.00    -0.020 A 
ATOM      5  C   LIG    1        0.033  -2.773  -0.018  0.00  0.00    +0.070 A 
ATOM      6  C   LIG    1        0.299  -2.069   1.159  0.00  0.00    -0.060 A 
ATOM      7  C   LIG    1        0.616  -2.814   2.430  0.00  0.00    +0.110 C 
ATOM      8  C   LIG    1        0.277  -0.690   1.153  0.00  0.00    +0.020 A 
ENDROOT
BRANCH   5   9
ATOM      9  N   LIG    1        0.059  -4.141  -0.021  0.00  0.00    -0.460 NA
ATOM     10  C   LIG    1        0.713  -4.780  -0.955  0.00  0.00    +0.360 C 
BRANCH  10  11
ATOM     11  C   LIG    1        0.646  -6.195  -1.026  0.00  0.00    -0.010 A 
ATOM     12  C   LIG    1        1.286  -6.993  -1.949  0.00  0.00    +0.010 A 
ATOM     13  C   LIG    1        0.937  -8.318  -1.643  0.00  0.00    -0.060 A 
ATOM     14  C   LIG    1        0.118  -8.277  -0.569  0.00  0.00    +0.200 A 
ATOM     15  O   LIG    1       -0.051  -7.000  -0.197  0.00  0.00    -0.150 OA
ENDBRANCH  10  11
ENDBRANCH   5   9
TORSDOF 2
ENDMDL
MODEL      315
REMARK  Name = ZINC000000298289
REMARK                            x       y       z     vdW  Elec       q    Type
REMARK                         _______ _______ _______ _____ _____    ______ ____
ROOT
ATOM      1  C   LIG    1        1.634  -3.177  -0.024  0.00  0.00    +0.360 C 
ATOM      2  N   LIG    1        2.927  -2.980  -0.028  0.00  0.00    -0.470 NA
ENDROOT
BRANCH   2   3
ATOM      3  C   LIG    1        3.780  -4.048  -0.039  0.00  0.00    +0.070 A 
ATOM      4  C   LIG    1        3.552  -5.138   0.806  0.00  0.00    -0.020 A 
ATOM      5  C   LIG    1        4.417  -6.212   0.790  0.00  0.00    +0.020 A 
ATOM      6  C   LIG    1        5.510  -6.212  -0.060  0.00  0.00    -0.090 A 
ATOM      7  C   LIG    1        5.742  -5.136  -0.899  0.00  0.00    +0.020 A 
ATOM      8  C   LIG    1        6.451  -7.389  -0.071  0.00  0.00    +0.090 C 
ATOM      9  C   LIG    1        4.882  -4.058  -0.898  0.00  0.00    +0.030 A 
ENDBRANCH   2   3
BRANCH   1  14
ATOM     10  C   LIG    1       -0.018   1.503   0.010  0.00  0.00    +0.180 C 
ATOM     11  C   LIG    1        0.002  -0.004   0.002  0.00  0.00    +0.020 A 
ATOM     12  C   LIG    1       -1.087  -0.803   0.003  0.00  0.00    -0.060 A 
ATOM     13  C   LIG    1       -0.628  -2.130  -0.007  0.00  0.00    +0.020 A 
ATOM     14  C   LIG    1        0.749  -2.069  -0.013  0.00  0.00    -0.020 A 
ATOM     15  O   LIG    1        1.104  -0.767  -0.013  0.00  0.00    -0.150 OA
ENDBRANCH   1  14
TORSDOF 2
ENDMDL
MODEL      316
REMARK  Name = ZINC000000571077
REMARK                            x       y       z     vdW  Elec       q    Type
REMARK                         _______ _______ _______ _____ _____    ______ ____
ROOT
ATOM      1  C   LIG    1       -0.018   1.503   0.010  0.00  0.00    +0.090 C 
ATOM      2  C   LIG    1        0.002  -0.004   0.002  0.00  0.00    -0.090 A 
ATOM      3  C   LIG    1        0.006  -0.686  -1.202  0.00  0.00    +0.030 A 
ATOM      4  C   LIG    1        0.024  -2.065  -1.217  0.00  0.00    -0.030 A 
ATOM      5  C   LIG    1        0.040  -2.773  -0.013  0.00  0.00    +0.070 A 
ATOM      6  C   LIG    1        0.036  -2.078   1.199  0.00  0.00    +0.030 A 
ATOM      7  C   LIG    1        0.023  -0.699   1.199  0.00  0.00    -0.070 A 
ATOM      8  C   LIG    1        0.019   0.053   2.505  0.00  0.00    +0.090 C 
ENDROOT
BRANCH   5   9
ATOM      9  N   LIG    1        0.059  -4.141  -0.021  0.00  0.00    -0.460 NA
ATOM     10  C   LIG    1       -0.737  -4.801  -0.822  0.00  0.00    +0.360 C 
BRANCH  10  11
ATOM     11  C   LIG    1       -0.717  -6.219  -0.829  0.00  0.00    -0.010 A 
ATOM     12  C   LIG    1       -1.493  -7.037  -1.621  0.00  0.00    +0.010 A 
ATOM     13  C   LIG    1       -1.142  -8.357  -1.296  0.00  0.00    -0.060 A 
ATOM     14  C   LIG    1       -0.189  -8.294  -0.341  0.00  0.00    +0.200 A 
ATOM     15  O   LIG    1        0.069  -7.007  -0.067  0.00  0.00    -0.150 OA
ENDBRANCH  10  11
ENDBRANCH   5   9
TORSDOF 2
ENDMDL
MODEL      317
REMARK  Name = ZINC000000968182
REMARK                            x       y       z     vdW  Elec       q    Type
REMARK                         _______ _______ _______ _____ _____    ______ ____
ROOT
ATOM      1  C   LIG    1        2.165  -0.079  -1.208  0.00  0.00    -0.070 A 
ATOM      2  C   LIG    1        2.551   1.137  -1.739  0.00  0.00    +0.020 A 
ATOM      3  C   LIG    1        3.879   1.521  -1.694  0.00  0.00    +0.030 A 
ATOM      4  C   LIG    1        4.820   0.688  -1.118  0.00  0.00    -0.090 A 
ATOM      5  C   LIG    1        4.433  -0.528  -0.586  0.00  0.00    +0.020 A 
ATOM      6  C   LIG    1        3.106  -0.910  -0.627  0.00  0.00    +0.000 A 
ENDROOT
BRANCH   4   7
ATOM      7  C   LIG    1        6.267   1.106  -1.070  0.00  0.00    +0.170 C 
ATOM      8  C   LIG    1        6.729   1.175   0.387  0.00  0.00    +0.080 C 
BRANCH   7   9
ATOM      9  C   LIG    1        7.086   0.123  -1.798  0.00  0.00    +0.210 C 
ATOM     10  N   LIG    1        7.718  -0.635  -2.360  0.00  0.00    -0.430 NA
ENDBRANCH   7   9
ENDBRANCH   4   7
BRANCH   1  11
ATOM     11  C   LIG    1        0.718  -0.497  -1.257  0.00  0.00    +0.060 C 
BRANCH  11  13
ATOM     12  C   LIG    1       -0.019   1.526   0.010  0.00  0.00    +0.010 C 
ATOM     13  C   LIG    1        0.002  -0.004   0.002  0.00  0.00    -0.020 C 
ATOM     14  C   LIG    1       -1.433  -0.534   0.013  0.00  0.00    +0.020 C 
ENDBRANCH  11  13
ENDBRANCH   1  11
TORSDOF 4
ENDMDL
MODEL      318
REMARK  Name = ZINC000001105050
REMARK                            x       y       z     vdW  Elec       q    Type
REMARK                         _______ _______ _______ _____ _____    ______ ____
ROOT
ATOM      1  C   LIG    1        0.061  -4.246  -0.021  0.00  0.00    +0.320 C 
ATOM      2  N   LIG    1        0.075  -4.904   1.103  0.00  0.00    -0.480 NA
ENDROOT
BRANCH   1   7
ATOM      3  C   LIG    1       -0.018   1.503   0.010  0.00  0.00    +0.090 C 
ATOM      4  C   LIG    1        0.002  -0.004   0.002  0.00  0.00    -0.060 A 
ATOM      5  C   LIG    1        0.006  -0.686  -1.202  0.00  0.00    +0.000 A 
ATOM      6  C   LIG    1        0.024  -2.065  -1.218  0.00  0.00    +0.050 A 
ATOM      7  C   LIG    1        0.040  -2.774  -0.013  0.00  0.00    -0.090 A 
ATOM      8  C   LIG    1        0.037  -2.078   1.199  0.00  0.00    +0.080 A 
ATOM      9  C   LIG    1        0.023  -0.699   1.199  0.00  0.00    +0.000 A 
ENDBRANCH   1   7
BRANCH   2  10
ATOM     10  C   LIG    1        0.094  -6.272   1.096  0.00  0.00    +0.080 A 
ATOM     11  C   LIG    1       -0.750  -6.981   0.238  0.00  0.00    -0.030 A 
ATOM     12  C   LIG    1       -0.725  -8.360   0.235  0.00  0.00    +0.030 A 
ATOM     13  C   LIG    1        0.133  -9.041   1.080  0.00  0.00    +0.000 A 
ATOM     14  C   LIG    1        0.973  -8.345   1.932  0.00  0.00    +0.020 A 
ATOM     15  C   LIG    1        0.962  -6.966   1.942  0.00  0.00    +0.030 A 
ENDBRANCH   2  10
TORSDOF 2
ENDMDL
MODEL      319
REMARK  Name = ZINC000001257868
REMARK                            x       y       z     vdW  Elec       q    Type
REMARK                         _______ _______ _______ _____ _____    ______ ____
ROOT
ATOM      1  C   LIG    1        0.059  -4.255  -0.021  0.00  0.00    -0.010 A 
ATOM      2  C   LIG    1        0.069  -4.945  -1.234  0.00  0.00    +0.020 A 
ATOM      3  C   LIG    1        0.087  -6.322  -1.243  0.00  0.00    +0.080 A 
ATOM      4  C   LIG    1        0.096  -7.028  -0.037  0.00  0.00    -0.030 A 
ATOM      5  C   LIG    1        0.087  -6.335   1.177  0.00  0.00    +0.080 A 
ATOM      6  C   LIG    1        0.074  -4.958   1.183  0.00  0.00    +0.020 A 
ENDROOT
BRANCH   1  11
ATOM      7  C   LIG    1       -0.018   1.503   0.010  0.00  0.00    +0.090 C 
ATOM      8  C   LIG    1        0.002  -0.004   0.002  0.00  0.00    -0.080 A 
ATOM      9  C   LIG    1        0.006  -0.686  -1.201  0.00  0.00    +0.010 A 
ATOM     10  C   LIG    1        0.024  -2.066  -1.215  0.00  0.00    +0.030 A 
ATOM     11  C   LIG    1        0.039  -2.772  -0.013  0.00  0.00    -0.070 A 
ATOM     12  C   LIG    1        0.036  -2.079   1.196  0.00  0.00    +0.030 A 
ATOM     13  C   LIG    1        0.023  -0.699   1.198  0.00  0.00    +0.010 A 
ENDBRANCH   1  11
BRANCH   4  14
ATOM     14  C   LIG    1        0.116  -8.460  -0.044  0.00  0.00    +0.250 C 
ATOM     15  N   LIG    1        0.131  -9.595  -0.051  0.00  0.00    -0.410 NA
ENDBRANCH   4  14
TORSDOF 2
ENDMDL
MODEL      320
REMARK  Name = ZINC000001257545
REMARK                            x       y       z     vdW  Elec       q    Type
REMARK                         _______ _______ _______ _____ _____    ______ ____
ROOT
ATOM      1  C   LIG    1        0.020   0.021   2.495  0.00  0.00    -0.010 A 
ATOM      2  C   LIG    1        0.933   1.052   2.715  0.00  0.00    +0.030 A 
ATOM      3  C   LIG    1        0.931   1.731   3.913  0.00  0.00    +0.070 A 
ATOM      4  C   LIG    1        0.013   1.387   4.909  0.00  0.00    -0.030 A 
ATOM      5  C   LIG    1       -0.901   0.353   4.687  0.00  0.00    +0.070 A 
ATOM      6  C   LIG    1       -0.900  -0.320   3.487  0.00  0.00    +0.030 A 
ENDROOT
BRANCH   1  13
ATOM      7  C   LIG    1       -0.018   1.503   0.010  0.00  0.00    +0.090 C 
ATOM      8  C   LIG    1        0.002  -0.004   0.002  0.00  0.00    -0.070 A 
ATOM      9  C   LIG    1        0.006  -0.689  -1.196  0.00  0.00    +0.010 A 
ATOM     10  C   LIG    1        0.024  -2.072  -1.205  0.00  0.00    +0.010 A 
ATOM     11  C   LIG    1        0.039  -2.777  -0.015  0.00  0.00    +0.000 A 
ATOM     12  C   LIG    1        0.036  -2.103   1.189  0.00  0.00    +0.030 A 
ATOM     13  C   LIG    1        0.023  -0.709   1.205  0.00  0.00    -0.060 A 
ENDBRANCH   1  13
BRANCH   4  14
ATOM     14  C   LIG    1        0.010   2.092   6.155  0.00  0.00    +0.250 C 
ATOM     15  N   LIG    1        0.007   2.652   7.144  0.00  0.00    -0.410 NA
ENDBRANCH   4  14
TORSDOF 2
ENDMDL
MODEL      321
REMARK  Name = ZINC000001256886
REMARK                            x       y       z     vdW  Elec       q    Type
REMARK                         _______ _______ _______ _____ _____    ______ ____
ROOT
ATOM      1  C   LIG    1        0.061  -4.254  -0.021  0.00  0.00    +0.000 A 
ATOM      2  C   LIG    1       -0.851  -4.963  -0.798  0.00  0.00    +0.030 A 
ATOM      3  C   LIG    1       -0.828  -6.343  -0.803  0.00  0.00    +0.040 A 
ATOM      4  C   LIG    1        0.098  -7.033  -0.039  0.00  0.00    +0.020 A 
ATOM      5  C   LIG    1        1.010  -6.348   0.739  0.00  0.00    +0.070 A 
ATOM      6  C   LIG    1        1.006  -4.953   0.752  0.00  0.00    -0.020 A 
ENDROOT
BRANCH   1  11
ATOM      7  C   LIG    1       -0.018   1.503   0.010  0.00  0.00    +0.090 C 
ATOM      8  C   LIG    1        0.002  -0.004   0.002  0.00  0.00    -0.080 A 
ATOM      9  C   LIG    1        0.006  -0.686  -1.201  0.00  0.00    +0.010 A 
ATOM     10  C   LIG    1        0.024  -2.066  -1.215  0.00  0.00    +0.040 A 
ATOM     11  C   LIG    1        0.040  -2.772  -0.013  0.00  0.00    -0.070 A 
ATOM     12  C   LIG    1        0.037  -2.079   1.197  0.00  0.00    +0.020 A 
ATOM     13  C   LIG    1        0.023  -0.699   1.198  0.00  0.00    +0.010 A 
ENDBRANCH   1  11
BRANCH   6  14
ATOM     14  C   LIG    1        1.950  -4.238   1.556  0.00  0.00    +0.250 C 
ATOM     15  N   LIG    1        2.699  -3.670   2.194  0.00  0.00    -0.410 NA
ENDBRANCH   6  14
TORSDOF 2
ENDMDL
MODEL      322
REMARK  Name = ZINC000001529403
REMARK                            x       y       z     vdW  Elec       q    Type
REMARK                         _______ _______ _______ _____ _____    ______ ____
ROOT
ATOM      1  C   LIG    1        2.264  -4.584   3.704  0.00  0.00    +0.000 C 
ENDROOT
BRANCH   1   2
ATOM      2  C   LIG    1        1.524  -4.077   2.464  0.00  0.00    +0.000 C 
BRANCH   2   3
ATOM      3  C   LIG    1        1.503  -2.548   2.473  0.00  0.00    +0.000 C 
BRANCH   3   4
ATOM      4  C   LIG    1        0.763  -2.041   1.233  0.00  0.00    +0.000 C 
BRANCH   4   5
ATOM      5  C   LIG    1        0.742  -0.511   1.242  0.00  0.00    +0.000 C 
BRANCH   5   7
ATOM      6  C   LIG    1       -0.019   1.526   0.010  0.00  0.00    +0.000 C 
ATOM      7  C   LIG    1        0.002  -0.004   0.002  0.00  0.00    -0.010 C 
ENDBRANCH   5   7
ENDBRANCH   4   5
ENDBRANCH   3   4
ENDBRANCH   2   3
ENDBRANCH   1   2
BRANCH   1   8
ATOM      8  C   LIG    1        2.284  -6.114   3.695  0.00  0.00    +0.000 C 
BRANCH   8   9
ATOM      9  C   LIG    1        3.024  -6.621   4.935  0.00  0.00    +0.000 C 
BRANCH   9  10
ATOM     10  C   LIG    1        3.045  -8.151   4.926  0.00  0.00    +0.000 C 
BRANCH  10  11
ATOM     11  C   LIG    1        3.785  -8.658   6.166  0.00  0.00    +0.020 C 
BRANCH  11  12
ATOM     12  C   LIG    1        3.806 -10.187   6.158  0.00  0.00    +0.150 C 
BRANCH  12  13
ATOM     13  O   LIG    1        4.497 -10.661   7.315  0.00  0.00    -0.580 OA
ATOM     14  H   LIG    1        4.549 -11.624   7.376  0.00  0.00    +0.380 HD
ENDBRANCH  12  13
ENDBRANCH  11  12
ENDBRANCH  10  11
ENDBRANCH   9  10
ENDBRANCH   8   9
ENDBRANCH   1   8
TORSDOF 11
ENDMDL
MODEL      323
REMARK  Name = ZINC000001561729
REMARK                            x       y       z     vdW  Elec       q    Type
REMARK                         _______ _______ _______ _____ _____    ______ ____
ROOT
ATOM      1  C   LIG    1       -4.263  -4.652   0.018  0.00  0.00    +0.080 C 
ENDROOT
BRANCH   1   2
ATOM      2  C   LIG    1       -4.242  -6.159   0.009  0.00  0.00    -0.160 A 
ATOM      3  C   LIG    1       -4.236  -6.952  -1.082  0.00  0.00    +0.140 A 
ATOM      4  N   LIG    1       -4.216  -8.250  -0.666  0.00  0.00    -0.560 N 
ATOM      5  H   LIG    1       -4.209  -9.028  -1.244  0.00  0.00    +0.410 HD
ATOM      6  C   LIG    1       -4.211  -8.273   0.697  0.00  0.00    +0.140 A 
ATOM      7  C   LIG    1       -4.220  -6.999   1.140  0.00  0.00    -0.070 A 
ENDBRANCH   1   2
BRANCH   1   8
ATOM      8  C   LIG    1       -2.827  -4.123   0.007  0.00  0.00    +0.010 C 
BRANCH   8   9
ATOM      9  C   LIG    1       -2.848  -2.593   0.015  0.00  0.00    +0.000 C 
BRANCH   9  10
ATOM     10  C   LIG    1       -1.413  -2.063   0.004  0.00  0.00    +0.000 C 
BRANCH  10  11
ATOM     11  C   LIG    1       -1.433  -0.534   0.013  0.00  0.00    +0.000 C 
BRANCH  11  13
ATOM     12  C   LIG    1       -0.019   1.526   0.010  0.00  0.00    +0.000 C 
ATOM     13  C   LIG    1        0.002  -0.004   0.002  0.00  0.00    -0.010 C 
ENDBRANCH  11  13
ENDBRANCH  10  11
ENDBRANCH   9  10
ENDBRANCH   8   9
ENDBRANCH   1   8
TORSDOF 6
ENDMDL
MODEL      324
REMARK  Name = ZINC000001596062
REMARK                            x       y       z     vdW  Elec       q    Type
REMARK                         _______ _______ _______ _____ _____    ______ ____
ROOT
ATOM      1  C   LIG    1        2.192  -4.544  -3.791  0.00  0.00    +0.000 C 
ENDROOT
BRANCH   1   2
ATOM      2  C   LIG    1        1.476  -4.051  -2.532  0.00  0.00    +0.000 C 
BRANCH   2   3
ATOM      3  C   LIG    1        1.455  -2.521  -2.524  0.00  0.00    +0.000 C 
BRANCH   3   4
ATOM      4  C   LIG    1        0.739  -2.027  -1.265  0.00  0.00    +0.000 C 
BRANCH   4   5
ATOM      5  C   LIG    1        0.718  -0.497  -1.257  0.00  0.00    +0.000 C 
BRANCH   5   7
ATOM      6  C   LIG    1       -0.019   1.526   0.010  0.00  0.00    +0.000 C 
ATOM      7  C   LIG    1        0.002  -0.004   0.002  0.00  0.00    -0.010 C 
ENDBRANCH   5   7
ENDBRANCH   4   5
ENDBRANCH   3   4
ENDBRANCH   2   3
ENDBRANCH   1   2
BRANCH   1   8
ATOM      8  C   LIG    1        2.213  -6.074  -3.800  0.00  0.00    +0.000 C 
BRANCH   8   9
ATOM      9  C   LIG    1        2.929  -6.567  -5.058  0.00  0.00    +0.000 C 
BRANCH   9  10
ATOM     10  C   LIG    1        2.950  -8.097  -5.067  0.00  0.00    +0.020 C 
BRANCH  10  11
ATOM     11  C   LIG    1        3.666  -8.591  -6.326  0.00  0.00    +0.150 C 
BRANCH  11  12
ATOM     12  O   LIG    1        3.685 -10.019  -6.333  0.00  0.00    -0.580 OA
ATOM     13  H   LIG    1        4.125 -10.402  -7.105  0.00  0.00    +0.380 HD
ENDBRANCH  11  12
ENDBRANCH  10  11
ENDBRANCH   9  10
ENDBRANCH   8   9
ENDBRANCH   1   8
TORSDOF 10
ENDMDL
MODEL      325
REMARK  Name = ZINC000001606029
REMARK                            x       y       z     vdW  Elec       q    Type
REMARK                         _______ _______ _______ _____ _____    ______ ____
ROOT
ATOM      1  C   LIG    1        2.264  -4.584   3.704  0.00  0.00    -0.020 C 
ENDROOT
BRANCH   1   2
ATOM      2  C   LIG    1        1.524  -4.077   2.464  0.00  0.00    +0.010 C 
BRANCH   2   3
ATOM      3  C   LIG    1        1.503  -2.548   2.473  0.00  0.00    +0.000 C 
BRANCH   3   4
ATOM      4  C   LIG    1        0.763  -2.041   1.233  0.00  0.00    +0.000 C 
BRANCH   4   5
ATOM      5  C   LIG    1        0.742  -0.511   1.242  0.00  0.00    +0.000 C 
BRANCH   5   7
ATOM      6  C   LIG    1       -0.019   1.526   0.010  0.00  0.00    +0.000 C 
ATOM      7  C   LIG    1        0.002  -0.004   0.002  0.00  0.00    -0.010 C 
ENDBRANCH   5   7
ENDBRANCH   4   5
ENDBRANCH   3   4
ENDBRANCH   2   3
ENDBRANCH   1   2
BRANCH   1   8
ATOM      8  C   LIG    1        2.284  -6.114   3.695  0.00  0.00    +0.200 C 
BRANCH   8   9
ATOM      9  O   LIG    1        0.950  -6.609   3.823  0.00  0.00    -0.560 OA
ATOM     10  H   LIG    1        0.504  -6.334   4.636  0.00  0.00    +0.370 HD
ENDBRANCH   8   9
BRANCH   8  11
ATOM     11  C   LIG    1        3.130  -6.619   4.866  0.00  0.00    -0.020 C 
BRANCH  11  12
ATOM     12  C   LIG    1        3.254  -8.142   4.786  0.00  0.00    +0.010 C 
ATOM     13  C   LIG    1        4.099  -8.647   5.957  0.00  0.00    +0.000 C 
ENDBRANCH  11  12
ENDBRANCH   8  11
ENDBRANCH   1   8
TORSDOF 9
ENDMDL
MODEL      326
REMARK  Name = ZINC000001606028
REMARK                            x       y       z     vdW  Elec       q    Type
REMARK                         _______ _______ _______ _____ _____    ______ ____
ROOT
ATOM      1  C   LIG    1        2.192  -4.544  -3.791  0.00  0.00    +0.010 C 
ENDROOT
BRANCH   1   2
ATOM      2  C   LIG    1        1.476  -4.051  -2.532  0.00  0.00    +0.000 C 
BRANCH   2   3
ATOM      3  C   LIG    1        1.455  -2.521  -2.524  0.00  0.00    +0.000 C 
BRANCH   3   4
ATOM      4  C   LIG    1        0.739  -2.027  -1.265  0.00  0.00    +0.000 C 
BRANCH   4   5
ATOM      5  C   LIG    1        0.718  -0.497  -1.257  0.00  0.00    +0.000 C 
BRANCH   5   7
ATOM      6  C   LIG    1       -0.019   1.526   0.010  0.00  0.00    +0.000 C 
ATOM      7  C   LIG    1        0.002  -0.004   0.002  0.00  0.00    -0.010 C 
ENDBRANCH   5   7
ENDBRANCH   4   5
ENDBRANCH   3   4
ENDBRANCH   2   3
ENDBRANCH   1   2
BRANCH   1   8
ATOM      8  C   LIG    1        2.213  -6.074  -3.800  0.00  0.00    -0.020 C 
BRANCH   8   9
ATOM      9  C   LIG    1        2.929  -6.567  -5.058  0.00  0.00    +0.200 C 
BRANCH   9  10
ATOM     10  C   LIG    1        3.060  -8.091  -5.007  0.00  0.00    -0.030 C 
ATOM     11  C   LIG    1        3.884  -8.573  -6.202  0.00  0.00    +0.010 C 
ENDBRANCH   9  10
BRANCH   9  12
ATOM     12  O   LIG    1        2.175  -6.193  -6.213  0.00  0.00    -0.560 OA
ATOM     13  H   LIG    1        1.279  -6.557  -6.233  0.00  0.00    +0.370 HD
ENDBRANCH   9  12
ENDBRANCH   8   9
ENDBRANCH   1   8
TORSDOF 9
ENDMDL
MODEL      327
REMARK  Name = ZINC000001605991
REMARK                            x       y       z     vdW  Elec       q    Type
REMARK                         _______ _______ _______ _____ _____    ______ ____
ROOT
ATOM      1  C   LIG    1        2.192  -4.544  -3.791  0.00  0.00    +0.010 C 
ENDROOT
BRANCH   1   2
ATOM      2  C   LIG    1        1.476  -4.051  -2.532  0.00  0.00    +0.000 C 
BRANCH   2   3
ATOM      3  C   LIG    1        1.455  -2.521  -2.524  0.00  0.00    +0.000 C 
BRANCH   3   4
ATOM      4  C   LIG    1        0.739  -2.027  -1.265  0.00  0.00    +0.000 C 
BRANCH   4   5
ATOM      5  C   LIG    1        0.718  -0.497  -1.257  0.00  0.00    +0.000 C 
BRANCH   5   7
ATOM      6  C   LIG    1       -0.019   1.526   0.010  0.00  0.00    +0.000 C 
ATOM      7  C   LIG    1        0.002  -0.004   0.002  0.00  0.00    -0.010 C 
ENDBRANCH   5   7
ENDBRANCH   4   5
ENDBRANCH   3   4
ENDBRANCH   2   3
ENDBRANCH   1   2
BRANCH   1   8
ATOM      8  C   LIG    1        2.213  -6.074  -3.800  0.00  0.00    -0.020 C 
BRANCH   8   9
ATOM      9  C   LIG    1        2.929  -6.567  -5.058  0.00  0.00    +0.200 C 
BRANCH   9  10
ATOM     10  O   LIG    1        2.175  -6.193  -6.213  0.00  0.00    -0.560 OA
ATOM     11  H   LIG    1        1.279  -6.557  -6.233  0.00  0.00    +0.370 HD
ENDBRANCH   9  10
BRANCH   9  12
ATOM     12  C   LIG    1        3.060  -8.091  -5.007  0.00  0.00    -0.020 C 
BRANCH  12  13
ATOM     13  C   LIG    1        3.884  -8.573  -6.202  0.00  0.00    +0.010 C 
ATOM     14  C   LIG    1        4.015 -10.096  -6.150  0.00  0.00    +0.000 C 
ENDBRANCH  12  13
ENDBRANCH   9  12
ENDBRANCH   8   9
ENDBRANCH   1   8
TORSDOF 10
ENDMDL
MODEL      328
REMARK  Name = ZINC000001698517
REMARK                            x       y       z     vdW  Elec       q    Type
REMARK                         _______ _______ _______ _____ _____    ______ ____
ROOT
ATOM      1  C   LIG    1        1.455  -2.521  -2.524  0.00  0.00    +0.000 C 
ENDROOT
BRANCH   1   2
ATOM      2  C   LIG    1        0.739  -2.027  -1.265  0.00  0.00    +0.000 C 
BRANCH   2   3
ATOM      3  C   LIG    1        0.718  -0.497  -1.257  0.00  0.00    +0.000 C 
BRANCH   3   5
ATOM      4  C   LIG    1       -0.019   1.526   0.010  0.00  0.00    +0.000 C 
ATOM      5  C   LIG    1        0.002  -0.004   0.002  0.00  0.00    -0.010 C 
ENDBRANCH   3   5
ENDBRANCH   2   3
ENDBRANCH   1   2
BRANCH   1   6
ATOM      6  C   LIG    1        1.476  -4.051  -2.532  0.00  0.00    +0.000 C 
BRANCH   6   7
ATOM      7  C   LIG    1        2.192  -4.544  -3.791  0.00  0.00    +0.000 C 
BRANCH   7   8
ATOM      8  C   LIG    1        2.213  -6.074  -3.800  0.00  0.00    -0.010 C 
ATOM      9  C   LIG    1        2.929  -6.567  -5.058  0.00  0.00    +0.000 C 
ENDBRANCH   7   8
ENDBRANCH   6   7
ENDBRANCH   1   6
TORSDOF 6
ENDMDL
MODEL      329
REMARK  Name = ZINC000001718852
REMARK                            x       y       z     vdW  Elec       q    Type
REMARK                         _______ _______ _______ _____ _____    ______ ____
ROOT
ATOM      1  C   LIG    1        2.192  -4.544  -3.791  0.00  0.00    +0.030 C 
ENDROOT
BRANCH   1   2
ATOM      2  C   LIG    1        2.213  -6.074  -3.800  0.00  0.00    -0.050 C 
ATOM      3  C   LIG    1        3.028  -6.583  -5.006  0.00  0.00    +0.040 C 
ATOM      4  C   LIG    1        2.249  -7.840  -5.473  0.00  0.00    +0.030 C 
ATOM      5  C   LIG    1        0.776  -7.418  -5.248  0.00  0.00    +0.000 C 
ATOM      6  C   LIG    1        0.805  -6.610  -3.962  0.00  0.00    +0.370 C 
ATOM      7  O   LIG    1       -0.121  -6.428  -3.209  0.00  0.00    -0.440 OA
ENDBRANCH   1   2
BRANCH   1   8
ATOM      8  C   LIG    1        1.476  -4.051  -2.532  0.00  0.00    +0.010 C 
BRANCH   8   9
ATOM      9  C   LIG    1        1.455  -2.521  -2.524  0.00  0.00    +0.000 C 
BRANCH   9  10
ATOM     10  C   LIG    1        0.739  -2.027  -1.265  0.00  0.00    +0.000 C 
BRANCH  10  11
ATOM     11  C   LIG    1        0.718  -0.497  -1.257  0.00  0.00    +0.000 C 
BRANCH  11  13
ATOM     12  C   LIG    1       -0.019   1.526   0.010  0.00  0.00    +0.000 C 
ATOM     13  C   LIG    1        0.002  -0.004   0.002  0.00  0.00    -0.010 C 
ENDBRANCH  11  13
ENDBRANCH  10  11
ENDBRANCH   9  10
ENDBRANCH   8   9
ENDBRANCH   1   8
TORSDOF 6
ENDMDL
MODEL      330
REMARK  Name = ZINC000001894378
REMARK                            x       y       z     vdW  Elec       q    Type
REMARK                         _______ _______ _______ _____ _____    ______ ____
ROOT
ATOM      1  C   LIG    1        2.284  -6.114   3.695  0.00  0.00    +0.000 C 
ATOM      2  C   LIG    1        3.107  -6.606   2.503  0.00  0.00    +0.010 C 
ATOM      3  C   LIG    1        3.128  -8.136   2.495  0.00  0.00    +0.000 C 
ATOM      4  C   LIG    1        3.757  -8.645   3.793  0.00  0.00    +0.000 C 
ATOM      5  C   LIG    1        2.934  -8.153   4.986  0.00  0.00    -0.020 C 
ATOM      6  C   LIG    1        2.913  -6.623   4.994  0.00  0.00    +0.160 C 
ENDROOT
BRANCH   6   7
ATOM      7  O   LIG    1        2.145  -6.163   6.107  0.00  0.00    -0.570 OA
ATOM      8  H   LIG    1        2.486  -6.448   6.966  0.00  0.00    +0.380 HD
ENDBRANCH   6   7
BRANCH   1   9
ATOM      9  C   LIG    1        2.264  -4.584   3.704  0.00  0.00    +0.020 C 
BRANCH   9  10
ATOM     10  C   LIG    1        1.524  -4.077   2.464  0.00  0.00    +0.000 C 
BRANCH  10  11
ATOM     11  C   LIG    1        1.503  -2.548   2.473  0.00  0.00    +0.000 C 
BRANCH  11  12
ATOM     12  C   LIG    1        0.763  -2.041   1.233  0.00  0.00    +0.000 C 
BRANCH  12  13
ATOM     13  C   LIG    1        0.742  -0.511   1.242  0.00  0.00    +0.000 C 
BRANCH  13  15
ATOM     14  C   LIG    1       -0.019   1.526   0.010  0.00  0.00    +0.000 C 
ATOM     15  C   LIG    1        0.002  -0.004   0.002  0.00  0.00    -0.010 C 
ENDBRANCH  13  15
ENDBRANCH  12  13
ENDBRANCH  11  12
ENDBRANCH  10  11
ENDBRANCH   9  10
ENDBRANCH   1   9
TORSDOF 7
ENDMDL
MODEL      331
REMARK  Name = ZINC000001873123
REMARK                            x       y       z     vdW  Elec       q    Type
REMARK                         _______ _______ _______ _____ _____    ______ ____
ROOT
ATOM      1  C   LIG    1        0.060  -4.275  -0.021  0.00  0.00    +0.090 C 
ATOM      2  C   LIG    1        1.312  -4.765  -0.752  0.00  0.00    +0.060 C 
ATOM      3  C   LIG    1        1.332  -6.295  -0.760  0.00  0.00    +0.000 C 
ATOM      4  C   LIG    1        1.347  -6.812   0.679  0.00  0.00    +0.020 C 
ATOM      5  C   LIG    1        0.095  -6.323   1.410  0.00  0.00    +0.000 C 
ATOM      6  C   LIG    1        0.074  -4.793   1.418  0.00  0.00    +0.060 C 
ENDROOT
BRANCH   1  11
ATOM      7  C   LIG    1       -0.018   1.503   0.010  0.00  0.00    +0.090 C 
ATOM      8  C   LIG    1        0.002  -0.004   0.002  0.00  0.00    -0.080 A 
ATOM      9  C   LIG    1        0.006  -0.689  -1.199  0.00  0.00    +0.000 A 
ATOM     10  C   LIG    1        0.025  -2.071  -1.206  0.00  0.00    +0.020 A 
ATOM     11  C   LIG    1        0.040  -2.768  -0.013  0.00  0.00    -0.090 A 
ATOM     12  C   LIG    1        0.038  -2.084   1.188  0.00  0.00    +0.030 A 
ATOM     13  C   LIG    1        0.023  -0.702   1.195  0.00  0.00    +0.010 A 
ENDBRANCH   1  11
BRANCH   1  14
ATOM     14  C   LIG    1       -1.139  -4.778  -0.712  0.00  0.00    +0.220 C 
ATOM     15  N   LIG    1       -2.064  -5.166  -1.244  0.00  0.00    -0.430 NA
ENDBRANCH   1  14
TORSDOF 2
ENDMDL
MODEL      332
REMARK  Name = ZINC000001866988
REMARK                            x       y       z     vdW  Elec       q    Type
REMARK                         _______ _______ _______ _____ _____    ______ ____
ROOT
ATOM      1  C   LIG    1        2.192  -4.544  -3.791  0.00  0.00    +0.000 C 
ENDROOT
BRANCH   1   2
ATOM      2  C   LIG    1        1.476  -4.051  -2.532  0.00  0.00    +0.000 C 
BRANCH   2   3
ATOM      3  C   LIG    1        1.455  -2.521  -2.524  0.00  0.00    +0.000 C 
BRANCH   3   4
ATOM      4  C   LIG    1        0.739  -2.027  -1.265  0.00  0.00    +0.000 C 
BRANCH   4   5
ATOM      5  C   LIG    1        0.718  -0.497  -1.257  0.00  0.00    +0.000 C 
BRANCH   5   7
ATOM      6  C   LIG    1       -0.019   1.526   0.010  0.00  0.00    +0.000 C 
ATOM      7  C   LIG    1        0.002  -0.004   0.002  0.00  0.00    -0.010 C 
ENDBRANCH   5   7
ENDBRANCH   4   5
ENDBRANCH   3   4
ENDBRANCH   2   3
ENDBRANCH   1   2
BRANCH   1   8
ATOM      8  C   LIG    1        2.213  -6.074  -3.800  0.00  0.00    +0.000 C 
BRANCH   8   9
ATOM      9  C   LIG    1        2.929  -6.567  -5.058  0.00  0.00    +0.010 C 
BRANCH   9  10
ATOM     10  C   LIG    1        2.950  -8.097  -5.067  0.00  0.00    +0.040 C 
BRANCH  10  11
ATOM     11  C   LIG    1        3.666  -8.591  -6.326  0.00  0.00    +0.110 C 
ATOM     12  C   LIG    1        3.870 -10.098  -6.485  0.00  0.00    +0.180 C 
ATOM     13  O   LIG    1        2.913  -9.369  -7.258  0.00  0.00    -0.360 OA
ENDBRANCH  10  11
ENDBRANCH   9  10
ENDBRANCH   8   9
ENDBRANCH   1   8
TORSDOF 9
ENDMDL
MODEL      333
REMARK  Name = ZINC000002015868
REMARK                            x       y       z     vdW  Elec       q    Type
REMARK                         _______ _______ _______ _____ _____    ______ ____
ROOT
ATOM      1  C   LIG    1        2.192  -4.544  -3.791  0.00  0.00    +0.010 C 
ENDROOT
BRANCH   1   2
ATOM      2  C   LIG    1        1.476  -4.051  -2.532  0.00  0.00    +0.000 C 
BRANCH   2   3
ATOM      3  C   LIG    1        1.455  -2.521  -2.524  0.00  0.00    +0.000 C 
BRANCH   3   4
ATOM      4  C   LIG    1        0.739  -2.027  -1.265  0.00  0.00    +0.000 C 
BRANCH   4   5
ATOM      5  C   LIG    1        0.718  -0.497  -1.257  0.00  0.00    +0.000 C 
BRANCH   5   7
ATOM      6  C   LIG    1       -0.019   1.526   0.010  0.00  0.00    +0.000 C 
ATOM      7  C   LIG    1        0.002  -0.004   0.002  0.00  0.00    -0.010 C 
ENDBRANCH   5   7
ENDBRANCH   4   5
ENDBRANCH   3   4
ENDBRANCH   2   3
ENDBRANCH   1   2
BRANCH   1   8
ATOM      8  C   LIG    1        2.213  -6.074  -3.800  0.00  0.00    -0.020 C 
BRANCH   8   9
ATOM      9  C   LIG    1        2.929  -6.567  -5.058  0.00  0.00    +0.200 C 
BRANCH   9  10
ATOM     10  O   LIG    1        4.301  -6.171  -5.012  0.00  0.00    -0.560 OA
ATOM     11  H   LIG    1        4.786  -6.521  -4.252  0.00  0.00    +0.370 HD
ENDBRANCH   9  10
BRANCH   9  12
ATOM     12  C   LIG    1        2.841  -8.093  -5.130  0.00  0.00    -0.020 C 
BRANCH  12  13
ATOM     13  C   LIG    1        3.447  -8.577  -6.449  0.00  0.00    +0.010 C 
ATOM     14  C   LIG    1        3.359 -10.103  -6.521  0.00  0.00    +0.000 C 
ENDBRANCH  12  13
ENDBRANCH   9  12
ENDBRANCH   8   9
ENDBRANCH   1   8
TORSDOF 10
ENDMDL
MODEL      334
REMARK  Name = ZINC000002035763
REMARK                            x       y       z     vdW  Elec       q    Type
REMARK                         _______ _______ _______ _____ _____    ______ ____
ROOT
ATOM      1  C   LIG    1        2.192  -4.544  -3.791  0.00  0.00    +0.000 C 
ENDROOT
BRANCH   1   2
ATOM      2  C   LIG    1        1.476  -4.051  -2.532  0.00  0.00    +0.000 C 
BRANCH   2   3
ATOM      3  C   LIG    1        1.455  -2.521  -2.524  0.00  0.00    +0.000 C 
BRANCH   3   4
ATOM      4  C   LIG    1        0.739  -2.027  -1.265  0.00  0.00    +0.000 C 
BRANCH   4   5
ATOM      5  C   LIG    1        0.718  -0.497  -1.257  0.00  0.00    +0.000 C 
BRANCH   5   7
ATOM      6  C   LIG    1       -0.019   1.526   0.010  0.00  0.00    +0.000 C 
ATOM      7  C   LIG    1        0.002  -0.004   0.002  0.00  0.00    -0.010 C 
ENDBRANCH   5   7
ENDBRANCH   4   5
ENDBRANCH   3   4
ENDBRANCH   2   3
ENDBRANCH   1   2
BRANCH   1   8
ATOM      8  C   LIG    1        2.213  -6.074  -3.800  0.00  0.00    +0.000 C 
BRANCH   8   9
ATOM      9  C   LIG    1        2.929  -6.567  -5.058  0.00  0.00    +0.010 C 
BRANCH   9  10
ATOM     10  C   LIG    1        2.950  -8.097  -5.067  0.00  0.00    +0.040 C 
BRANCH  10  11
ATOM     11  C   LIG    1        3.666  -8.591  -6.326  0.00  0.00    +0.110 C 
ATOM     12  C   LIG    1        3.720 -10.100  -6.569  0.00  0.00    +0.180 C 
ATOM     13  O   LIG    1        4.865  -9.348  -6.155  0.00  0.00    -0.360 OA
ENDBRANCH  10  11
ENDBRANCH   9  10
ENDBRANCH   8   9
ENDBRANCH   1   8
TORSDOF 9
ENDMDL
MODEL      335
REMARK  Name = ZINC000002040994
REMARK                            x       y       z     vdW  Elec       q    Type
REMARK                         _______ _______ _______ _____ _____    ______ ____
ROOT
ATOM      1  C   LIG    1        2.192  -4.544  -3.791  0.00  0.00    +0.030 C 
ENDROOT
BRANCH   1   2
ATOM      2  C   LIG    1        2.213  -6.074  -3.800  0.00  0.00    -0.050 C 
ATOM      3  C   LIG    1        2.833  -6.585  -5.116  0.00  0.00    +0.040 C 
ATOM      4  C   LIG    1        3.655  -7.825  -4.679  0.00  0.00    +0.030 C 
ATOM      5  C   LIG    1        4.216  -7.382  -3.305  0.00  0.00    +0.000 C 
ATOM      6  C   LIG    1        3.087  -6.586  -2.674  0.00  0.00    +0.370 C 
ATOM      7  O   LIG    1        2.918  -6.396  -1.493  0.00  0.00    -0.440 OA
ENDBRANCH   1   2
BRANCH   1   8
ATOM      8  C   LIG    1        1.476  -4.051  -2.532  0.00  0.00    +0.010 C 
BRANCH   8   9
ATOM      9  C   LIG    1        1.455  -2.521  -2.524  0.00  0.00    +0.000 C 
BRANCH   9  10
ATOM     10  C   LIG    1        0.739  -2.027  -1.265  0.00  0.00    +0.000 C 
BRANCH  10  11
ATOM     11  C   LIG    1        0.718  -0.497  -1.257  0.00  0.00    +0.000 C 
BRANCH  11  13
ATOM     12  C   LIG    1       -0.019   1.526   0.010  0.00  0.00    +0.000 C 
ATOM     13  C   LIG    1        0.002  -0.004   0.002  0.00  0.00    -0.010 C 
ENDBRANCH  11  13
ENDBRANCH  10  11
ENDBRANCH   9  10
ENDBRANCH   8   9
ENDBRANCH   1   8
TORSDOF 6
ENDMDL
MODEL      336
REMARK  Name = ZINC000002077767
REMARK                            x       y       z     vdW  Elec       q    Type
REMARK                         _______ _______ _______ _____ _____    ______ ____
ROOT
ATOM      1  C   LIG    1        2.284  -6.114   3.695  0.00  0.00    +0.210 C 
ENDROOT
BRANCH   1   2
ATOM      2  C   LIG    1        3.130  -6.619   4.866  0.00  0.00    -0.050 C 
ATOM      3  C   LIG    1        2.407  -6.354   6.210  0.00  0.00    +0.020 C 
ATOM      4  C   LIG    1        3.041  -7.408   7.152  0.00  0.00    +0.000 C 
ATOM      5  C   LIG    1        3.213  -8.656   6.262  0.00  0.00    -0.010 C 
ATOM      6  C   LIG    1        3.270  -8.154   4.808  0.00  0.00    +0.010 C 
ENDBRANCH   1   2
BRANCH   1   7
ATOM      7  O   LIG    1        0.950  -6.609   3.823  0.00  0.00    -0.560 OA
ATOM      8  H   LIG    1        0.504  -6.334   4.636  0.00  0.00    +0.370 HD
ENDBRANCH   1   7
BRANCH   1   9
ATOM      9  C   LIG    1        2.264  -4.584   3.704  0.00  0.00    -0.010 C 
BRANCH   9  10
ATOM     10  C   LIG    1        1.524  -4.077   2.464  0.00  0.00    +0.010 C 
BRANCH  10  11
ATOM     11  C   LIG    1        1.503  -2.548   2.473  0.00  0.00    +0.000 C 
BRANCH  11  12
ATOM     12  C   LIG    1        0.763  -2.041   1.233  0.00  0.00    +0.000 C 
BRANCH  12  13
ATOM     13  C   LIG    1        0.742  -0.511   1.242  0.00  0.00    +0.000 C 
BRANCH  13  15
ATOM     14  C   LIG    1       -0.019   1.526   0.010  0.00  0.00    +0.000 C 
ATOM     15  C   LIG    1        0.002  -0.004   0.002  0.00  0.00    -0.010 C 
ENDBRANCH  13  15
ENDBRANCH  12  13
ENDBRANCH  11  12
ENDBRANCH  10  11
ENDBRANCH   9  10
ENDBRANCH   1   9
TORSDOF 8
ENDMDL
MODEL      337
REMARK  Name = ZINC000002163870
REMARK                            x       y       z     vdW  Elec       q    Type
REMARK                         _______ _______ _______ _____ _____    ______ ____
ROOT
ATOM      1  C   LIG    1       -0.018   1.503   0.010  0.00  0.00    +0.090 C 
ATOM      2  C   LIG    1        0.002  -0.004   0.002  0.00  0.00    -0.070 A 
ATOM      3  C   LIG    1        0.006  -0.688  -1.201  0.00  0.00    +0.000 A 
ATOM      4  C   LIG    1        0.024  -2.071  -1.218  0.00  0.00    -0.070 A 
ATOM      5  C   LIG    1        0.040  -2.779  -0.035  0.00  0.00    +0.020 A 
ATOM      6  C   LIG    1        0.036  -2.095   1.184  0.00  0.00    +0.090 A 
ATOM      7  C   LIG    1        0.027  -2.807  -2.534  0.00  0.00    +0.090 C 
ATOM      8  C   LIG    1        0.023  -0.698   1.194  0.00  0.00    -0.040 A 
ENDROOT
BRANCH   6   9
ATOM      9  N   LIG    1        0.052  -2.791   2.361  0.00  0.00    -0.470 NA
ATOM     10  C   LIG    1        0.853  -2.422   3.327  0.00  0.00    +0.360 C 
BRANCH  10  11
ATOM     11  C   LIG    1        0.870  -3.143   4.548  0.00  0.00    -0.010 A 
ATOM     12  C   LIG    1        1.655  -2.863   5.645  0.00  0.00    +0.010 A 
ATOM     13  C   LIG    1        1.342  -3.827   6.617  0.00  0.00    -0.060 A 
ATOM     14  C   LIG    1        0.401  -4.638   6.087  0.00  0.00    +0.200 A 
ATOM     15  O   LIG    1        0.115  -4.221   4.845  0.00  0.00    -0.150 OA
ENDBRANCH  10  11
ENDBRANCH   6   9
TORSDOF 2
ENDMDL
MODEL      338
REMARK  Name = ZINC000002170159
REMARK                            x       y       z     vdW  Elec       q    Type
REMARK                         _______ _______ _______ _____ _____    ______ ____
ROOT
ATOM      1  C   LIG    1        2.192  -4.544  -3.791  0.00  0.00    +0.010 C 
ENDROOT
BRANCH   1   2
ATOM      2  C   LIG    1        1.476  -4.051  -2.532  0.00  0.00    +0.000 C 
BRANCH   2   3
ATOM      3  C   LIG    1        1.455  -2.521  -2.524  0.00  0.00    +0.000 C 
BRANCH   3   4
ATOM      4  C   LIG    1        0.739  -2.027  -1.265  0.00  0.00    +0.000 C 
BRANCH   4   5
ATOM      5  C   LIG    1        0.718  -0.497  -1.257  0.00  0.00    +0.000 C 
BRANCH   5   7
ATOM      6  C   LIG    1       -0.019   1.526   0.010  0.00  0.00    +0.000 C 
ATOM      7  C   LIG    1        0.002  -0.004   0.002  0.00  0.00    -0.010 C 
ENDBRANCH   5   7
ENDBRANCH   4   5
ENDBRANCH   3   4
ENDBRANCH   2   3
ENDBRANCH   1   2
BRANCH   1   8
ATOM      8  C   LIG    1        2.213  -6.074  -3.800  0.00  0.00    +0.080 C 
BRANCH   8   9
ATOM      9  C   LIG    1        2.918  -6.560  -5.040  0.00  0.00    -0.040 A 
ATOM     10  C   LIG    1        2.214  -6.794  -6.211  0.00  0.00    -0.040 A 
ATOM     11  C   LIG    1        2.895  -7.239  -7.328  0.00  0.00    +0.260 A 
ATOM     12  N   LIG    1        4.197  -7.442  -7.288  0.00  0.00    -0.490 NA
ATOM     13  C   LIG    1        4.899  -7.230  -6.192  0.00  0.00    +0.260 A 
ATOM     14  C   LIG    1        4.287  -6.778  -5.038  0.00  0.00    -0.040 A 
ENDBRANCH   8   9
ENDBRANCH   1   8
TORSDOF 7
ENDMDL
MODEL      339
REMARK  Name = ZINC000002556848
REMARK                            x       y       z     vdW  Elec       q    Type
REMARK                         _______ _______ _______ _____ _____    ______ ____
ROOT
ATOM      1  C   LIG    1        2.264  -4.584   3.704  0.00  0.00    +0.010 C 
ENDROOT
BRANCH   1   2
ATOM      2  C   LIG    1        1.524  -4.077   2.464  0.00  0.00    +0.000 C 
BRANCH   2   3
ATOM      3  C   LIG    1        1.503  -2.548   2.473  0.00  0.00    +0.000 C 
BRANCH   3   4
ATOM      4  C   LIG    1        0.763  -2.041   1.233  0.00  0.00    +0.000 C 
BRANCH   4   5
ATOM      5  C   LIG    1        0.742  -0.511   1.242  0.00  0.00    +0.000 C 
BRANCH   5   7
ATOM      6  C   LIG    1       -0.019   1.526   0.010  0.00  0.00    +0.000 C 
ATOM      7  C   LIG    1        0.002  -0.004   0.002  0.00  0.00    -0.010 C 
ENDBRANCH   5   7
ENDBRANCH   4   5
ENDBRANCH   3   4
ENDBRANCH   2   3
ENDBRANCH   1   2
BRANCH   1   8
ATOM      8  C   LIG    1        2.284  -6.114   3.695  0.00  0.00    +0.080 C 
BRANCH   8   9
ATOM      9  C   LIG    1        3.013  -6.613   4.916  0.00  0.00    -0.160 A 
ATOM     10  C   LIG    1        4.336  -6.856   5.012  0.00  0.00    +0.140 A 
ATOM     11  N   LIG    1        4.598  -7.294   6.277  0.00  0.00    -0.560 N 
ATOM     12  H   LIG    1        5.471  -7.542   6.619  0.00  0.00    +0.410 HD
ATOM     13  C   LIG    1        3.431  -7.326   6.980  0.00  0.00    +0.140 A 
ATOM     14  C   LIG    1        2.439  -6.906   6.169  0.00  0.00    -0.070 A 
ENDBRANCH   8   9
ENDBRANCH   1   8
TORSDOF 7
ENDMDL
MODEL      340
REMARK  Name = ZINC000002561336
REMARK                            x       y       z     vdW  Elec       q    Type
REMARK                         _______ _______ _______ _____ _____    ______ ____
ROOT
ATOM      1  C   LIG    1        1.074   1.413  -0.166  0.00  0.00    +0.010 C 
ATOM      2  C   LIG    1        0.894  -0.104  -0.261  0.00  0.00    -0.020 C 
ENDROOT
BRANCH   2   3
ATOM      3  C   LIG    1        0.974  -0.536  -1.726  0.00  0.00    +0.020 C 
BRANCH   3   4
ATOM      4  C   LIG    1       -0.239   0.006  -2.485  0.00  0.00    -0.070 C 
ATOM      5  C   LIG    1       -1.521  -0.406  -1.758  0.00  0.00    +0.010 C 
ATOM      6  C   LIG    1       -0.252  -0.566  -3.904  0.00  0.00    +0.010 C 
ATOM      7  C   LIG    1       -0.159   1.533  -2.551  0.00  0.00    +0.020 C 
ENDBRANCH   3   4
ENDBRANCH   2   3
BRANCH   2   8
ATOM      8  C   LIG    1        1.999  -0.799   0.536  0.00  0.00    +0.010 C 
BRANCH   8   9
ATOM      9  C   LIG    1        1.844  -0.465   2.022  0.00  0.00    +0.030 C 
BRANCH   9  10
ATOM     10  C   LIG    1        2.949  -1.161   2.819  0.00  0.00    -0.070 C 
ATOM     11  C   LIG    1        2.769  -2.677   2.724  0.00  0.00    +0.050 C 
BRANCH  10  12
ATOM     12  C   LIG    1        2.871  -0.735   4.263  0.00  0.00    +0.440 C 
ATOM     13  O   LIG    1        3.809  -0.178   4.780  0.00  0.00    -0.460 OA
ENDBRANCH  10  12
ENDBRANCH   9  10
ENDBRANCH   8   9
ENDBRANCH   2   8
TORSDOF 6
ENDMDL
MODEL      341
REMARK  Name = ZINC000002570021
REMARK                            x       y       z     vdW  Elec       q    Type
REMARK                         _______ _______ _______ _____ _____    ______ ____
ROOT
ATOM      1  C   LIG    1        2.192  -4.544  -3.791  0.00  0.00    +0.010 C 
ENDROOT
BRANCH   1   2
ATOM      2  C   LIG    1        1.476  -4.051  -2.532  0.00  0.00    +0.000 C 
BRANCH   2   3
ATOM      3  C   LIG    1        1.455  -2.521  -2.524  0.00  0.00    +0.000 C 
BRANCH   3   4
ATOM      4  C   LIG    1        0.739  -2.027  -1.265  0.00  0.00    +0.000 C 
BRANCH   4   5
ATOM      5  C   LIG    1        0.718  -0.497  -1.257  0.00  0.00    +0.000 C 
BRANCH   5   7
ATOM      6  C   LIG    1       -0.019   1.526   0.010  0.00  0.00    +0.000 C 
ATOM      7  C   LIG    1        0.002  -0.004   0.002  0.00  0.00    -0.010 C 
ENDBRANCH   5   7
ENDBRANCH   4   5
ENDBRANCH   3   4
ENDBRANCH   2   3
ENDBRANCH   1   2
BRANCH   1   8
ATOM      8  C   LIG    1        2.213  -6.074  -3.800  0.00  0.00    -0.020 C 
BRANCH   8   9
ATOM      9  C   LIG    1        2.929  -6.567  -5.058  0.00  0.00    +0.200 C 
BRANCH   9  10
ATOM     10  C   LIG    1        2.841  -8.093  -5.130  0.00  0.00    -0.030 C 
ATOM     11  C   LIG    1        3.447  -8.577  -6.449  0.00  0.00    +0.010 C 
ENDBRANCH   9  10
BRANCH   9  12
ATOM     12  O   LIG    1        4.301  -6.171  -5.012  0.00  0.00    -0.560 OA
ATOM     13  H   LIG    1        4.786  -6.521  -4.252  0.00  0.00    +0.370 HD
ENDBRANCH   9  12
ENDBRANCH   8   9
ENDBRANCH   1   8
TORSDOF 9
ENDMDL
MODEL      342
REMARK  Name = ZINC000002584512
REMARK                            x       y       z     vdW  Elec       q    Type
REMARK                         _______ _______ _______ _____ _____    ______ ____
ROOT
ATOM      1  C   LIG    1        0.739  -2.004  -1.265  0.00  0.00    -0.080 A 
ATOM      2  C   LIG    1        1.352  -2.693  -0.235  0.00  0.00    +0.040 A 
ATOM      3  C   LIG    1        1.371  -4.075  -0.242  0.00  0.00    +0.030 A 
ATOM      4  C   LIG    1        0.776  -4.769  -1.280  0.00  0.00    -0.030 A 
ATOM      5  C   LIG    1        0.163  -4.080  -2.311  0.00  0.00    +0.030 A 
ATOM      6 CL   LIG    1        0.799  -6.505  -1.290  0.00  0.00    -0.070 Cl
ATOM      7  C   LIG    1        0.140  -2.698  -2.300  0.00  0.00    +0.050 A 
ENDROOT
BRANCH   1   8
ATOM      8  C   LIG    1        0.718  -0.497  -1.257  0.00  0.00    +0.170 C 
BRANCH   8  10
ATOM      9  C   LIG    1       -0.019   1.526   0.010  0.00  0.00    +0.020 C 
ATOM     10  C   LIG    1        0.002  -0.004   0.002  0.00  0.00    +0.000 C 
ATOM     11  C   LIG    1       -1.433  -0.534   0.013  0.00  0.00    +0.030 C 
ENDBRANCH   8  10
BRANCH   8  12
ATOM     12  C   LIG    1        2.099   0.012  -1.267  0.00  0.00    +0.210 C 
ATOM     13  N   LIG    1        3.165   0.405  -1.275  0.00  0.00    -0.420 NA
ENDBRANCH   8  12
ENDBRANCH   1   8
TORSDOF 3
ENDMDL
MODEL      343
REMARK  Name = ZINC000003132879
REMARK                            x       y       z     vdW  Elec       q    Type
REMARK                         _______ _______ _______ _____ _____    ______ ____
ROOT
ATOM      1  C   LIG    1       -4.241  -4.644   0.018  0.00  0.00    -0.030 C 
ATOM      2  C   LIG    1       -4.639  -5.477  -0.912  0.00  0.00    -0.090 C 
ENDROOT
BRANCH   1   3
ATOM      3  C   LIG    1       -2.827  -4.123   0.007  0.00  0.00    +0.040 C 
BRANCH   3   4
ATOM      4  C   LIG    1       -2.848  -2.593   0.015  0.00  0.00    +0.010 C 
BRANCH   4   5
ATOM      5  C   LIG    1       -1.413  -2.063   0.004  0.00  0.00    +0.000 C 
BRANCH   5   6
ATOM      6  C   LIG    1       -1.433  -0.534   0.013  0.00  0.00    +0.000 C 
BRANCH   6   8
ATOM      7  C   LIG    1       -0.019   1.526   0.010  0.00  0.00    +0.000 C 
ATOM      8  C   LIG    1        0.002  -0.004   0.002  0.00  0.00    -0.010 C 
ENDBRANCH   6   8
ENDBRANCH   5   6
ENDBRANCH   4   5
ENDBRANCH   3   4
ENDBRANCH   1   3
BRANCH   2   9
ATOM      9  C   LIG    1       -6.053  -5.998  -0.902  0.00  0.00    +0.250 C 
BRANCH   9  10
ATOM     10  C   LIG    1       -6.715  -5.705  -2.249  0.00  0.00    -0.040 C 
ATOM     11  C   LIG    1       -6.731  -4.194  -2.492  0.00  0.00    +0.020 C 
ATOM     12  C   LIG    1       -8.150  -6.234  -2.239  0.00  0.00    +0.010 C 
ENDBRANCH   9  10
BRANCH   9  13
ATOM     13  O   LIG    1       -6.790  -5.356   0.141  0.00  0.00    -0.560 OA
ATOM     14  H   LIG    1       -6.841  -4.395   0.052  0.00  0.00    +0.370 HD
ENDBRANCH   9  13
ENDBRANCH   2   9
TORSDOF 8
ENDMDL
MODEL      344
REMARK  Name = ZINC000003132877
REMARK                            x       y       z     vdW  Elec       q    Type
REMARK                         _______ _______ _______ _____ _____    ______ ____
ROOT
ATOM      1  C   LIG    1       -4.241  -4.644   0.018  0.00  0.00    -0.020 C 
ATOM      2  C   LIG    1       -4.639  -5.477  -0.912  0.00  0.00    -0.090 C 
ENDROOT
BRANCH   1   3
ATOM      3  C   LIG    1       -2.827  -4.123   0.007  0.00  0.00    +0.050 C 
BRANCH   3   4
ATOM      4  C   LIG    1       -2.848  -2.593   0.015  0.00  0.00    +0.000 C 
BRANCH   4   5
ATOM      5  C   LIG    1       -1.413  -2.063   0.004  0.00  0.00    +0.000 C 
BRANCH   5   6
ATOM      6  C   LIG    1       -1.433  -0.534   0.013  0.00  0.00    +0.000 C 
BRANCH   6   8
ATOM      7  C   LIG    1       -0.019   1.526   0.010  0.00  0.00    +0.000 C 
ATOM      8  C   LIG    1        0.002  -0.004   0.002  0.00  0.00    -0.010 C 
ENDBRANCH   6   8
ENDBRANCH   5   6
ENDBRANCH   4   5
ENDBRANCH   3   4
ENDBRANCH   1   3
BRANCH   2   9
ATOM      9  C   LIG    1       -6.053  -5.998  -0.902  0.00  0.00    +0.240 C 
BRANCH   9  10
ATOM     10  C   LIG    1       -6.755  -5.596  -2.200  0.00  0.00    -0.050 C 
ATOM     11  C   LIG    1       -6.775  -4.071  -2.318  0.00  0.00    +0.030 C 
ATOM     12  C   LIG    1       -8.190  -6.125  -2.189  0.00  0.00    +0.010 C 
ENDBRANCH   9  10
BRANCH   9  13
ATOM     13  O   LIG    1       -6.034  -7.423  -0.792  0.00  0.00    -0.560 OA
ATOM     14  H   LIG    1       -5.572  -7.867  -1.516  0.00  0.00    +0.370 HD
ENDBRANCH   9  13
ENDBRANCH   2   9
TORSDOF 8
ENDMDL
MODEL      345
REMARK  Name = ZINC000001529305
REMARK                            x       y       z     vdW  Elec       q    Type
REMARK                         _______ _______ _______ _____ _____    ______ ____
ROOT
ATOM      1  C   LIG    1       -2.827  -4.123   0.007  0.00  0.00    +0.000 C 
ENDROOT
BRANCH   1   2
ATOM      2  C   LIG    1       -2.848  -2.593   0.015  0.00  0.00    +0.000 C 
BRANCH   2   3
ATOM      3  C   LIG    1       -1.413  -2.063   0.004  0.00  0.00    +0.000 C 
BRANCH   3   4
ATOM      4  C   LIG    1       -1.433  -0.534   0.013  0.00  0.00    +0.000 C 
BRANCH   4   6
ATOM      5  C   LIG    1       -0.019   1.526   0.010  0.00  0.00    +0.000 C 
ATOM      6  C   LIG    1        0.002  -0.004   0.002  0.00  0.00    -0.010 C 
ENDBRANCH   4   6
ENDBRANCH   3   4
ENDBRANCH   2   3
ENDBRANCH   1   2
BRANCH   1   7
ATOM      7  C   LIG    1       -4.263  -4.652   0.018  0.00  0.00    +0.000 C 
BRANCH   7   8
ATOM      8  C   LIG    1       -4.242  -6.182   0.009  0.00  0.00    +0.030 C 
BRANCH   8   9
ATOM      9  C   LIG    1       -5.677  -6.712   0.020  0.00  0.00    +0.030 C 
BRANCH   9  10
ATOM     10  C   LIG    1       -5.657  -8.219   0.012  0.00  0.00    +0.350 C 
ATOM     11  O   LIG    1       -4.603  -8.808  -0.001  0.00  0.00    -0.460 OA
ATOM     12  C   LIG    1       -6.952  -8.990   0.020  0.00  0.00    +0.050 C 
ENDBRANCH   9  10
ENDBRANCH   8   9
ENDBRANCH   7   8
ENDBRANCH   1   7
TORSDOF 8
ENDMDL
