MODEL        1
REMARK  Name = ZINC000025624169
REMARK                            x       y       z     vdW  Elec       q    Type
REMARK                         _______ _______ _______ _____ _____    ______ ____
ROOT
ATOM      1  N   LIG    1        0.865  -0.223  -1.072  0.00  0.00    -0.520 N 
ATOM      2  C   LIG    1        2.076   0.179  -0.992  0.00  0.00    +0.340 C 
ATOM      3  C   LIG    1        2.605   0.780   0.307  0.00  0.00    +0.110 C 
ATOM      4  C   LIG    1        4.017   0.334   0.575  0.00  0.00    +0.060 C 
ATOM      5  C   LIG    1        5.007   1.308  -0.078  0.00  0.00    +0.020 C 
ATOM      6  C   LIG    1        5.184   1.058  -1.511  0.00  0.00    +0.020 C 
ATOM      7  C   LIG    1        3.893   1.275  -2.313  0.00  0.00    +0.060 C 
ATOM      8  C   LIG    1        3.009   0.058  -2.194  0.00  0.00    +0.120 C 
ATOM      9  H   LIG    1        0.510  -0.530  -1.921  0.00  0.00    +0.430 HD
ENDROOT
BRANCH   1  11
ATOM     10  C   LIG    1       -0.062   1.195   0.692  0.00  0.00    +0.070 C 
ATOM     11  C   LIG    1        0.013  -0.222   0.120  0.00  0.00    +0.100 C 
ATOM     12  C   LIG    1       -1.393  -0.694  -0.258  0.00  0.00    +0.090 C 
ATOM     13  C   LIG    1        0.603  -1.165   1.170  0.00  0.00    +0.090 C 
ENDBRANCH   1  11
TORSDOF 1
ENDMDL
MODEL        2
REMARK  Name = ZINC000095722588
REMARK                            x       y       z     vdW  Elec       q    Type
REMARK                         _______ _______ _______ _____ _____    ______ ____
ROOT
ATOM      1  C   LIG    1       -5.677  -6.712   0.020  0.00  0.00    +0.000 C 
ATOM      2  C   LIG    1       -6.381  -6.358  -1.306  0.00  0.00    +0.040 C 
ATOM      3  C   LIG    1       -7.266  -7.593  -1.608  0.00  0.00    +0.040 C 
ATOM      4  C   LIG    1       -6.372  -8.774  -1.151  0.00  0.00    +0.050 C 
ATOM      5  C   LIG    1       -5.672  -8.247   0.121  0.00  0.00    +0.180 C 
ENDROOT
BRANCH   5   6
ATOM      6  N   LIG    1       -4.290  -8.744   0.176  0.00  0.00    -0.640 N 
ATOM      7  H   LIG    1       -4.297  -9.752   0.218  0.00  0.00    +0.430 HD
ATOM      8  H   LIG    1       -3.833  -8.376   0.997  0.00  0.00    +0.430 HD
ATOM      9  H   LIG    1       -3.792  -8.445  -0.649  0.00  0.00    +0.430 HD
ENDBRANCH   5   6
BRANCH   1  10
ATOM     10  C   LIG    1       -4.242  -6.182   0.009  0.00  0.00    +0.000 C 
BRANCH  10  11
ATOM     11  C   LIG    1       -4.263  -4.652   0.018  0.00  0.00    +0.020 C 
BRANCH  11  12
ATOM     12  C   LIG    1       -2.827  -4.123   0.007  0.00  0.00    +0.000 C 
BRANCH  12  13
ATOM     13  C   LIG    1       -2.848  -2.593   0.015  0.00  0.00    +0.000 C 
BRANCH  13  14
ATOM     14  C   LIG    1       -1.413  -2.063   0.004  0.00  0.00    +0.000 C 
BRANCH  14  15
ATOM     15  C   LIG    1       -1.433  -0.534   0.013  0.00  0.00    +0.000 C 
BRANCH  15  17
ATOM     16  C   LIG    1       -0.019   1.526   0.010  0.00  0.00    +0.000 C 
ATOM     17  C   LIG    1        0.002  -0.004   0.002  0.00  0.00    -0.010 C 
ENDBRANCH  15  17
ENDBRANCH  14  15
ENDBRANCH  13  14
ENDBRANCH  12  13
ENDBRANCH  11  12
ENDBRANCH  10  11
ENDBRANCH   1  10
TORSDOF 8
ENDMDL
MODEL        3
REMARK  Name = ZINC000095722582
REMARK                            x       y       z     vdW  Elec       q    Type
REMARK                         _______ _______ _______ _____ _____    ______ ____
ROOT
ATOM      1  C   LIG    1       -5.677  -6.712   0.020  0.00  0.00    -0.020 C 
ATOM      2  C   LIG    1       -6.381  -6.358  -1.306  0.00  0.00    +0.040 C 
ATOM      3  C   LIG    1       -6.207  -7.627  -2.178  0.00  0.00    +0.050 C 
ATOM      4  C   LIG    1       -6.372  -8.774  -1.151  0.00  0.00    +0.050 C 
ATOM      5  C   LIG    1       -5.672  -8.247   0.121  0.00  0.00    +0.170 C 
ENDROOT
BRANCH   5   6
ATOM      6  N   LIG    1       -6.408  -8.678   1.316  0.00  0.00    -0.630 N 
ATOM      7  H   LIG    1       -7.356  -8.335   1.270  0.00  0.00    +0.430 HD
ATOM      8  H   LIG    1       -5.957  -8.310   2.140  0.00  0.00    +0.440 HD
ATOM      9  H   LIG    1       -6.418  -9.686   1.360  0.00  0.00    +0.440 HD
ENDBRANCH   5   6
BRANCH   1  10
ATOM     10  C   LIG    1       -4.242  -6.182   0.009  0.00  0.00    +0.030 C 
BRANCH  10  11
ATOM     11  C   LIG    1       -4.263  -4.652   0.018  0.00  0.00    +0.010 C 
BRANCH  11  12
ATOM     12  C   LIG    1       -2.827  -4.123   0.007  0.00  0.00    +0.000 C 
BRANCH  12  13
ATOM     13  C   LIG    1       -2.848  -2.593   0.015  0.00  0.00    +0.000 C 
BRANCH  13  14
ATOM     14  C   LIG    1       -1.413  -2.063   0.004  0.00  0.00    +0.000 C 
BRANCH  14  15
ATOM     15  C   LIG    1       -1.433  -0.534   0.013  0.00  0.00    +0.000 C 
BRANCH  15  17
ATOM     16  C   LIG    1       -0.019   1.526   0.010  0.00  0.00    +0.000 C 
ATOM     17  C   LIG    1        0.002  -0.004   0.002  0.00  0.00    -0.010 C 
ENDBRANCH  15  17
ENDBRANCH  14  15
ENDBRANCH  13  14
ENDBRANCH  12  13
ENDBRANCH  11  12
ENDBRANCH  10  11
ENDBRANCH   1  10
TORSDOF 8
ENDMDL
MODEL        4
REMARK  Name = ZINC000095722579
REMARK                            x       y       z     vdW  Elec       q    Type
REMARK                         _______ _______ _______ _____ _____    ______ ____
ROOT
ATOM      1  C   LIG    1       -5.677  -6.712   0.020  0.00  0.00    +0.000 C 
ATOM      2  C   LIG    1       -6.356  -6.373   1.364  0.00  0.00    +0.040 C 
ATOM      3  C   LIG    1       -7.234  -7.611   1.669  0.00  0.00    +0.040 C 
ATOM      4  C   LIG    1       -6.350  -8.786   1.182  0.00  0.00    +0.050 C 
ATOM      5  C   LIG    1       -5.674  -8.246  -0.097  0.00  0.00    +0.180 C 
ENDROOT
BRANCH   5   6
ATOM      6  N   LIG    1       -4.294  -8.742  -0.184  0.00  0.00    -0.640 N 
ATOM      7  H   LIG    1       -3.780  -8.452   0.635  0.00  0.00    +0.430 HD
ATOM      8  H   LIG    1       -3.853  -8.365  -1.009  0.00  0.00    +0.430 HD
ATOM      9  H   LIG    1       -4.301  -9.750  -0.236  0.00  0.00    +0.430 HD
ENDBRANCH   5   6
BRANCH   1  10
ATOM     10  C   LIG    1       -4.242  -6.182   0.009  0.00  0.00    +0.000 C 
BRANCH  10  11
ATOM     11  C   LIG    1       -4.263  -4.652   0.018  0.00  0.00    +0.020 C 
BRANCH  11  12
ATOM     12  C   LIG    1       -2.827  -4.123   0.007  0.00  0.00    +0.000 C 
BRANCH  12  13
ATOM     13  C   LIG    1       -2.848  -2.593   0.015  0.00  0.00    +0.000 C 
BRANCH  13  14
ATOM     14  C   LIG    1       -1.413  -2.063   0.004  0.00  0.00    +0.000 C 
BRANCH  14  15
ATOM     15  C   LIG    1       -1.433  -0.534   0.013  0.00  0.00    +0.000 C 
BRANCH  15  17
ATOM     16  C   LIG    1       -0.019   1.526   0.010  0.00  0.00    +0.000 C 
ATOM     17  C   LIG    1        0.002  -0.004   0.002  0.00  0.00    -0.010 C 
ENDBRANCH  15  17
ENDBRANCH  14  15
ENDBRANCH  13  14
ENDBRANCH  12  13
ENDBRANCH  11  12
ENDBRANCH  10  11
ENDBRANCH   1  10
TORSDOF 8
ENDMDL
MODEL        5
REMARK  Name = ZINC000095722585
REMARK                            x       y       z     vdW  Elec       q    Type
REMARK                         _______ _______ _______ _____ _____    ______ ____
ROOT
ATOM      1  C   LIG    1       -5.677  -6.712   0.020  0.00  0.00    -0.020 C 
ATOM      2  C   LIG    1       -6.356  -6.373   1.364  0.00  0.00    +0.060 C 
ATOM      3  C   LIG    1       -7.234  -7.611   1.669  0.00  0.00    +0.020 C 
ATOM      4  C   LIG    1       -6.350  -8.786   1.182  0.00  0.00    +0.060 C 
ATOM      5  C   LIG    1       -5.674  -8.246  -0.097  0.00  0.00    +0.160 C 
ENDROOT
BRANCH   5   6
ATOM      6  N   LIG    1       -6.433  -8.665  -1.283  0.00  0.00    -0.630 N 
ATOM      7  H   LIG    1       -6.444  -9.672  -1.337  0.00  0.00    +0.440 HD
ATOM      8  H   LIG    1       -5.998  -8.288  -2.111  0.00  0.00    +0.440 HD
ATOM      9  H   LIG    1       -7.380  -8.321  -1.214  0.00  0.00    +0.430 HD
ENDBRANCH   5   6
BRANCH   1  10
ATOM     10  C   LIG    1       -4.242  -6.182   0.009  0.00  0.00    +0.030 C 
BRANCH  10  11
ATOM     11  C   LIG    1       -4.263  -4.652   0.018  0.00  0.00    +0.010 C 
BRANCH  11  12
ATOM     12  C   LIG    1       -2.827  -4.123   0.007  0.00  0.00    +0.000 C 
BRANCH  12  13
ATOM     13  C   LIG    1       -2.848  -2.593   0.015  0.00  0.00    +0.000 C 
BRANCH  13  14
ATOM     14  C   LIG    1       -1.413  -2.063   0.004  0.00  0.00    +0.000 C 
BRANCH  14  15
ATOM     15  C   LIG    1       -1.433  -0.534   0.013  0.00  0.00    +0.000 C 
BRANCH  15  17
ATOM     16  C   LIG    1       -0.019   1.526   0.010  0.00  0.00    +0.000 C 
ATOM     17  C   LIG    1        0.002  -0.004   0.002  0.00  0.00    -0.010 C 
ENDBRANCH  15  17
ENDBRANCH  14  15
ENDBRANCH  13  14
ENDBRANCH  12  13
ENDBRANCH  11  12
ENDBRANCH  10  11
ENDBRANCH   1  10
TORSDOF 8
ENDMDL
MODEL        6
REMARK  Name = ZINC000100296770
REMARK                            x       y       z     vdW  Elec       q    Type
REMARK                         _______ _______ _______ _____ _____    ______ ____
ROOT
ATOM      1  C   LIG    1        2.192  -4.544  -3.791  0.00  0.00    +0.030 C 
ENDROOT
BRANCH   1   2
ATOM      2  C   LIG    1        1.476  -4.051  -2.532  0.00  0.00    +0.020 C 
BRANCH   2   3
ATOM      3  C   LIG    1        1.455  -2.521  -2.524  0.00  0.00    +0.020 C 
BRANCH   3   4
ATOM      4  C   LIG    1        0.739  -2.027  -1.265  0.00  0.00    +0.000 C 
BRANCH   4   5
ATOM      5  C   LIG    1        0.718  -0.497  -1.257  0.00  0.00    +0.000 C 
BRANCH   5   7
ATOM      6  C   LIG    1       -0.019   1.526   0.010  0.00  0.00    +0.000 C 
ATOM      7  C   LIG    1        0.002  -0.004   0.002  0.00  0.00    -0.010 C 
ENDBRANCH   5   7
ENDBRANCH   4   5
ENDBRANCH   3   4
ENDBRANCH   2   3
ENDBRANCH   1   2
BRANCH   1   8
ATOM      8  C   LIG    1        2.213  -6.074  -3.800  0.00  0.00    +0.250 C 
BRANCH   8   9
ATOM      9  N   LIG    1        2.900  -6.548  -5.008  0.00  0.00    -0.270 N 
ATOM     10  C   LIG    1        4.291  -6.057  -5.013  0.00  0.00    +0.240 C 
ATOM     11  C   LIG    1        5.212  -7.294  -5.054  0.00  0.00    +0.070 C 
ATOM     12  C   LIG    1        4.292  -8.395  -5.644  0.00  0.00    +0.080 C 
ATOM     13  C   LIG    1        2.201  -6.054  -6.202  0.00  0.00    +0.310 C 
ATOM     14  C   LIG    1        2.923  -8.026  -5.021  0.00  0.00    +0.250 C 
ENDBRANCH   8   9
ENDBRANCH   1   8
TORSDOF 7
ENDMDL
MODEL        7
REMARK  Name = ZINC000001614517
REMARK                            x       y       z     vdW  Elec       q    Type
REMARK                         _______ _______ _______ _____ _____    ______ ____
ROOT
ATOM      1  C   LIG    1        2.192  -4.544  -3.791  0.00  0.00    +0.020 C 
ENDROOT
BRANCH   1   2
ATOM      2  C   LIG    1        1.476  -4.051  -2.532  0.00  0.00    +0.000 C 
BRANCH   2   3
ATOM      3  C   LIG    1        1.455  -2.521  -2.524  0.00  0.00    +0.000 C 
BRANCH   3   4
ATOM      4  C   LIG    1        0.739  -2.027  -1.265  0.00  0.00    +0.000 C 
BRANCH   4   5
ATOM      5  C   LIG    1        0.718  -0.497  -1.257  0.00  0.00    +0.000 C 
BRANCH   5   7
ATOM      6  C   LIG    1       -0.019   1.526   0.010  0.00  0.00    +0.000 C 
ATOM      7  C   LIG    1        0.002  -0.004   0.002  0.00  0.00    -0.010 C 
ENDBRANCH   5   7
ENDBRANCH   4   5
ENDBRANCH   3   4
ENDBRANCH   2   3
ENDBRANCH   1   2
BRANCH   1   8
ATOM      8  C   LIG    1        2.213  -6.074  -3.800  0.00  0.00    +0.020 C 
BRANCH   8   9
ATOM      9  C   LIG    1        2.929  -6.567  -5.058  0.00  0.00    +0.030 C 
BRANCH   9  10
ATOM     10  C   LIG    1        2.950  -8.097  -5.067  0.00  0.00    +0.250 C 
BRANCH  10  11
ATOM     11  N   LIG    1        3.637  -8.571  -6.276  0.00  0.00    -0.390 N 
ATOM     12  C   LIG    1        3.553 -10.036  -6.344  0.00  0.00    +0.310 C 
ATOM     13  C   LIG    1        5.048  -8.163  -6.228  0.00  0.00    +0.310 C 
ATOM     14  H   LIG    1        3.199  -8.170  -7.091  0.00  0.00    +0.430 HD
ENDBRANCH  10  11
ENDBRANCH   9  10
ENDBRANCH   8   9
ENDBRANCH   1   8
TORSDOF 9
ENDMDL
MODEL        8
REMARK  Name = ZINC000001545438
REMARK                            x       y       z     vdW  Elec       q    Type
REMARK                         _______ _______ _______ _____ _____    ______ ____
ROOT
ATOM      1  C   LIG    1       -4.242  -6.182   0.009  0.00  0.00    +0.000 C 
ENDROOT
BRANCH   1   2
ATOM      2  C   LIG    1       -4.263  -4.652   0.018  0.00  0.00    +0.000 C 
BRANCH   2   3
ATOM      3  C   LIG    1       -2.827  -4.123   0.007  0.00  0.00    +0.000 C 
BRANCH   3   4
ATOM      4  C   LIG    1       -2.848  -2.593   0.015  0.00  0.00    +0.000 C 
BRANCH   4   5
ATOM      5  C   LIG    1       -1.413  -2.063   0.004  0.00  0.00    +0.000 C 
BRANCH   5   6
ATOM      6  C   LIG    1       -1.433  -0.534   0.013  0.00  0.00    +0.000 C 
BRANCH   6   8
ATOM      7  C   LIG    1       -0.019   1.526   0.010  0.00  0.00    +0.000 C 
ATOM      8  C   LIG    1        0.002  -0.004   0.002  0.00  0.00    -0.010 C 
ENDBRANCH   6   8
ENDBRANCH   5   6
ENDBRANCH   4   5
ENDBRANCH   3   4
ENDBRANCH   2   3
ENDBRANCH   1   2
BRANCH   1   9
ATOM      9  C   LIG    1       -5.677  -6.712   0.020  0.00  0.00    +0.020 C 
BRANCH   9  10
ATOM     10  C   LIG    1       -5.657  -8.242   0.012  0.00  0.00    +0.020 C 
BRANCH  10  11
ATOM     11  C   LIG    1       -7.092  -8.771   0.023  0.00  0.00    +0.030 C 
BRANCH  11  12
ATOM     12  C   LIG    1       -7.071 -10.301   0.014  0.00  0.00    +0.250 C 
BRANCH  12  13
ATOM     13  N   LIG    1       -8.449 -10.810   0.025  0.00  0.00    -0.640 N 
ATOM     14  H   LIG    1       -8.921 -10.484   0.855  0.00  0.00    +0.440 HD
ATOM     15  H   LIG    1       -8.436 -11.819   0.019  0.00  0.00    +0.440 HD
ATOM     16  H   LIG    1       -8.937 -10.475  -0.793  0.00  0.00    +0.440 HD
ENDBRANCH  12  13
ENDBRANCH  11  12
ENDBRANCH  10  11
ENDBRANCH   9  10
ENDBRANCH   1   9
TORSDOF 11
ENDMDL
