MODEL        1
REMARK  Name = ZINC000001689827
REMARK                            x       y       z     vdW  Elec       q    Type
REMARK                         _______ _______ _______ _____ _____    ______ ____
ROOT
ATOM      1  C   LIG    1       -4.263  -4.652   0.018  0.00  0.00    +0.000 C 
ENDROOT
BRANCH   1   2
ATOM      2  C   LIG    1       -2.827  -4.123   0.007  0.00  0.00    +0.000 C 
BRANCH   2   3
ATOM      3  C   LIG    1       -2.848  -2.593   0.015  0.00  0.00    +0.000 C 
BRANCH   3   4
ATOM      4  C   LIG    1       -1.413  -2.063   0.004  0.00  0.00    +0.000 C 
BRANCH   4   5
ATOM      5  C   LIG    1       -1.433  -0.534   0.013  0.00  0.00    +0.000 C 
BRANCH   5   7
ATOM      6  C   LIG    1       -0.019   1.526   0.010  0.00  0.00    +0.000 C 
ATOM      7  C   LIG    1        0.002  -0.004   0.002  0.00  0.00    -0.010 C 
ENDBRANCH   5   7
ENDBRANCH   4   5
ENDBRANCH   3   4
ENDBRANCH   2   3
ENDBRANCH   1   2
BRANCH   1   8
ATOM      8  C   LIG    1       -4.242  -6.182   0.009  0.00  0.00    +0.000 C 
BRANCH   8   9
ATOM      9  C   LIG    1       -5.677  -6.712   0.020  0.00  0.00    +0.030 C 
BRANCH   9  10
ATOM     10  C   LIG    1       -5.657  -8.219   0.012  0.00  0.00    -0.040 C 
ATOM     11  C   LIG    1       -6.301  -8.899   0.960  0.00  0.00    -0.110 C 
BRANCH  11  12
ATOM     12  C   LIG    1       -6.281 -10.366   0.952  0.00  0.00    +0.510 C 
ATOM     13  O   LIG    1       -6.872 -10.991   1.822  0.00  0.00    -0.700 OA
ATOM     14  O   LIG    1       -5.673 -10.965   0.074  0.00  0.00    -0.700 OA
ENDBRANCH  11  12
ENDBRANCH   9  10
ENDBRANCH   8   9
ENDBRANCH   1   8
TORSDOF 9
ENDMDL
MODEL        2
REMARK  Name = ZINC000032786154
REMARK                            x       y       z     vdW  Elec       q    Type
REMARK                         _______ _______ _______ _____ _____    ______ ____
ROOT
ATOM      1  C   LIG    1        2.143  -4.598  -3.780  0.00  0.00    -0.080 C 
ATOM      2  C   LIG    1        3.257  -5.276  -3.666  0.00  0.00    -0.030 C 
ENDROOT
BRANCH   1   3
ATOM      3  C   LIG    1        1.417  -4.129  -2.545  0.00  0.00    +0.050 C 
BRANCH   3   4
ATOM      4  C   LIG    1        1.146  -2.627  -2.651  0.00  0.00    +0.010 C 
BRANCH   4   5
ATOM      5  C   LIG    1        0.409  -2.151  -1.398  0.00  0.00    +0.000 C 
BRANCH   5   6
ATOM      6  C   LIG    1        0.139  -0.649  -1.505  0.00  0.00    +0.000 C 
BRANCH   6   8
ATOM      7  C   LIG    1       -0.869   1.329  -0.358  0.00  0.00    +0.000 C 
ATOM      8  C   LIG    1       -0.598  -0.173  -0.251  0.00  0.00    -0.010 C 
ENDBRANCH   6   8
ENDBRANCH   5   6
ENDBRANCH   4   5
ENDBRANCH   3   4
ENDBRANCH   1   3
BRANCH   2   9
ATOM      9  C   LIG    1        3.726  -5.734  -2.309  0.00  0.00    +0.020 C 
BRANCH   9  10
ATOM     10  C   LIG    1        3.981  -7.242  -2.341  0.00  0.00    +0.030 C 
BRANCH  10  11
ATOM     11  C   LIG    1        4.457  -7.708  -0.963  0.00  0.00    -0.080 C 
BRANCH  11  12
ATOM     12  C   LIG    1        4.708  -9.193  -0.994  0.00  0.00    +0.490 C 
ATOM     13  O   LIG    1        5.096  -9.767   0.010  0.00  0.00    -0.710 OA
ATOM     14  O   LIG    1        4.524  -9.822  -2.022  0.00  0.00    -0.700 OA
ENDBRANCH  11  12
ENDBRANCH  10  11
ENDBRANCH   9  10
ENDBRANCH   2   9
TORSDOF 9
ENDMDL
MODEL        3
REMARK  Name = ZINC000032838973
REMARK                            x       y       z     vdW  Elec       q    Type
REMARK                         _______ _______ _______ _____ _____    ______ ____
ROOT
ATOM      1  C   LIG    1       -3.667  -4.922   0.030  0.00  0.00    +0.000 C 
ENDROOT
BRANCH   1   2
ATOM      2  C   LIG    1       -2.203  -4.609  -0.285  0.00  0.00    +0.000 C 
BRANCH   2   3
ATOM      3  C   LIG    1       -1.957  -3.107  -0.130  0.00  0.00    +0.000 C 
BRANCH   3   4
ATOM      4  C   LIG    1       -0.492  -2.795  -0.444  0.00  0.00    +0.000 C 
BRANCH   4   5
ATOM      5  C   LIG    1       -0.247  -1.293  -0.289  0.00  0.00    +0.000 C 
BRANCH   5   7
ATOM      6  C   LIG    1        1.464   0.521  -0.448  0.00  0.00    +0.000 C 
ATOM      7  C   LIG    1        1.218  -0.981  -0.604  0.00  0.00    -0.010 C 
ENDBRANCH   5   7
ENDBRANCH   4   5
ENDBRANCH   3   4
ENDBRANCH   2   3
ENDBRANCH   1   2
BRANCH   1   8
ATOM      8  C   LIG    1       -3.913  -6.424  -0.126  0.00  0.00    -0.010 C 
BRANCH   8   9
ATOM      9  C   LIG    1       -5.377  -6.736   0.189  0.00  0.00    +0.070 C 
BRANCH   9  10
ATOM     10  C   LIG    1       -5.620  -8.216   0.036  0.00  0.00    -0.050 C 
ATOM     11  C   LIG    1       -6.215  -8.898   1.013  0.00  0.00    -0.130 C 
BRANCH  11  12
ATOM     12  C   LIG    1       -6.945  -8.184   2.067  0.00  0.00    +0.510 C 
ATOM     13  O   LIG    1       -7.379  -8.797   3.033  0.00  0.00    -0.700 OA
ATOM     14  O   LIG    1       -7.120  -6.976   1.979  0.00  0.00    -0.680 OA
ENDBRANCH  11  12
ENDBRANCH   9  10
ENDBRANCH   8   9
ENDBRANCH   1   8
TORSDOF 9
ENDMDL
MODEL        4
REMARK  Name = ZINC000001586297
REMARK                            x       y       z     vdW  Elec       q    Type
REMARK                         _______ _______ _______ _____ _____    ______ ____
ROOT
ATOM      1  C   LIG    1        2.192  -4.544  -3.791  0.00  0.00    +0.000 C 
ENDROOT
BRANCH   1   2
ATOM      2  C   LIG    1        1.476  -4.051  -2.532  0.00  0.00    +0.000 C 
BRANCH   2   3
ATOM      3  C   LIG    1        1.455  -2.521  -2.524  0.00  0.00    +0.000 C 
BRANCH   3   4
ATOM      4  C   LIG    1        0.739  -2.027  -1.265  0.00  0.00    +0.000 C 
BRANCH   4   5
ATOM      5  C   LIG    1        0.718  -0.497  -1.257  0.00  0.00    +0.000 C 
BRANCH   5   7
ATOM      6  C   LIG    1       -0.019   1.526   0.010  0.00  0.00    +0.000 C 
ATOM      7  C   LIG    1        0.002  -0.004   0.002  0.00  0.00    -0.010 C 
ENDBRANCH   5   7
ENDBRANCH   4   5
ENDBRANCH   3   4
ENDBRANCH   2   3
ENDBRANCH   1   2
BRANCH   1   8
ATOM      8  C   LIG    1        2.213  -6.074  -3.800  0.00  0.00    -0.020 C 
BRANCH   8   9
ATOM      9  C   LIG    1        2.929  -6.567  -5.058  0.00  0.00    +0.030 C 
BRANCH   9  10
ATOM     10  C   LIG    1        2.950  -8.097  -5.067  0.00  0.00    -0.080 C 
BRANCH  10  11
ATOM     11  C   LIG    1        3.655  -8.583  -6.307  0.00  0.00    +0.490 C 
ATOM     12  O   LIG    1        3.781  -9.779  -6.507  0.00  0.00    -0.710 OA
ATOM     13  O   LIG    1        4.100  -7.780  -7.109  0.00  0.00    -0.700 OA
ENDBRANCH  10  11
ENDBRANCH   9  10
ENDBRANCH   8   9
ENDBRANCH   1   8
TORSDOF 9
ENDMDL
