REMARK  Name = ZINC000001615305
REMARK                            x       y       z     vdW  Elec       q    Type
REMARK                         _______ _______ _______ _____ _____    ______ ____
ROOT
ATOM      1  C   LIG    1        0.002  -0.004   0.002  0.00  0.00    +0.140 C 
ATOM      2  C   LIG    1        0.020  -1.311  -0.005  0.00  0.00    -0.120 C 
ATOM      3  C   LIG    1        0.036  -2.094   1.289  0.00  0.00    +0.090 C 
ATOM      4  C   LIG    1       -1.085  -3.137   1.242  0.00  0.00    +0.020 C 
ATOM      5  C   LIG    1       -0.928  -3.994  -0.015  0.00  0.00    +0.010 C 
ATOM      6  C   LIG    1       -1.097  -3.123  -1.261  0.00  0.00    +0.010 C 
ATOM      7  C   LIG    1        0.018  -2.080  -1.308  0.00  0.00    +0.090 C 
ATOM      8  N   LIG    1       -0.015   1.246   0.009  0.00  0.00    -0.450 NA
ENDROOT
BRANCH   8   9
ATOM      9  C   LIG    1        1.244   1.996   0.001  0.00  0.00    +0.140 C 
ATOM     10  C   LIG    1        1.301   2.883  -1.244  0.00  0.00    +0.020 C 
ATOM     11  C   LIG    1        2.615   3.666  -1.252  0.00  0.00    +0.010 C 
ATOM     12  C   LIG    1        2.696   4.540   0.001  0.00  0.00    +0.020 C 
ATOM     13  C   LIG    1        2.639   3.652   1.246  0.00  0.00    +0.010 C 
ATOM     14  C   LIG    1        1.325   2.869   1.254  0.00  0.00    +0.020 C 
ENDBRANCH   8   9
TORSDOF 1
