MODEL        1
REMARK  Name = ZINC000001680049
REMARK                            x       y       z     vdW  Elec       q    Type
REMARK                         _______ _______ _______ _____ _____    ______ ____
ROOT
ATOM      1  C   LIG    1        2.053  -2.654   1.077  0.00  0.00    +0.000 C 
ENDROOT
BRANCH   1   2
ATOM      2  C   LIG    1        0.608  -2.163   0.967  0.00  0.00    +0.040 C 
BRANCH   2   5
ATOM      3  C   LIG    1       -0.018   1.503   0.010  0.00  0.00    +0.050 C 
ATOM      4  C   LIG    1        0.002  -0.004   0.002  0.00  0.00    -0.050 C 
ATOM      5  C   LIG    1        0.588  -0.657   0.976  0.00  0.00    -0.050 C 
ENDBRANCH   2   5
ENDBRANCH   1   2
BRANCH   1   6
ATOM      6  C   LIG    1        2.074  -4.184   1.068  0.00  0.00    +0.000 C 
BRANCH   6   7
ATOM      7  C   LIG    1        3.518  -4.675   1.177  0.00  0.00    +0.000 C 
BRANCH   7   8
ATOM      8  C   LIG    1        3.539  -6.205   1.169  0.00  0.00    +0.000 C 
BRANCH   8   9
ATOM      9  C   LIG    1        4.984  -6.696   1.278  0.00  0.00    -0.010 C 
ATOM     10  C   LIG    1        5.005  -8.226   1.270  0.00  0.00    +0.000 C 
ENDBRANCH   8   9
ENDBRANCH   7   8
ENDBRANCH   6   7
ENDBRANCH   1   6
TORSDOF 6
ENDMDL
MODEL        2
REMARK  Name = ZINC000005420412
REMARK                            x       y       z     vdW  Elec       q    Type
REMARK                         _______ _______ _______ _____ _____    ______ ____
ROOT
ATOM      1  C   LIG    1        0.237   0.015   2.479  0.00  0.00    +0.310 C 
ATOM      2  N   LIG    1        0.127   1.313   2.503  0.00  0.00    -0.470 NA
ENDROOT
BRANCH   1   9
ATOM      3  C   LIG    1       -0.478   1.458   0.075  0.00  0.00    +0.100 C 
ATOM      4  C   LIG    1       -0.218  -0.026   0.033  0.00  0.00    -0.030 A 
ATOM      5  C   LIG    1       -0.317  -0.712  -1.159  0.00  0.00    +0.000 A 
ATOM      6  C   LIG    1       -0.080  -2.075  -1.199  0.00  0.00    +0.040 A 
ATOM      7  C   LIG    1        0.258  -2.760  -0.045  0.00  0.00    -0.010 A 
ATOM      8  C   LIG    1        0.361  -2.087   1.155  0.00  0.00    +0.050 A 
ATOM      9  C   LIG    1        0.129  -0.710   1.202  0.00  0.00    -0.090 A 
ENDBRANCH   1   9
BRANCH   2  10
ATOM     10  C   LIG    1        0.228   1.987   3.689  0.00  0.00    +0.080 A 
ATOM     11  C   LIG    1       -0.440   1.517   4.822  0.00  0.00    -0.030 A 
ATOM     12  C   LIG    1       -0.334   2.201   6.015  0.00  0.00    +0.010 A 
ATOM     13  C   LIG    1        0.431   3.351   6.091  0.00  0.00    -0.010 A 
ATOM     14  C   LIG    1        1.096   3.823   4.973  0.00  0.00    +0.020 A 
ATOM     15  C   LIG    1        1.004   3.145   3.775  0.00  0.00    +0.030 A 
ENDBRANCH   2  10
TORSDOF 2
ENDMDL
MODEL        3
REMARK  Name = ZINC000002015843
REMARK                            x       y       z     vdW  Elec       q    Type
REMARK                         _______ _______ _______ _____ _____    ______ ____
ROOT
ATOM      1  C   LIG    1       -4.263  -4.652   0.018  0.00  0.00    +0.000 C 
ENDROOT
BRANCH   1   2
ATOM      2  C   LIG    1       -2.827  -4.123   0.007  0.00  0.00    +0.000 C 
BRANCH   2   3
ATOM      3  C   LIG    1       -2.848  -2.593   0.015  0.00  0.00    +0.000 C 
BRANCH   3   4
ATOM      4  C   LIG    1       -1.413  -2.063   0.004  0.00  0.00    +0.000 C 
BRANCH   4   5
ATOM      5  C   LIG    1       -1.433  -0.534   0.013  0.00  0.00    +0.000 C 
BRANCH   5   7
ATOM      6  C   LIG    1       -0.019   1.526   0.010  0.00  0.00    +0.000 C 
ATOM      7  C   LIG    1        0.002  -0.004   0.002  0.00  0.00    -0.010 C 
ENDBRANCH   5   7
ENDBRANCH   4   5
ENDBRANCH   3   4
ENDBRANCH   2   3
ENDBRANCH   1   2
BRANCH   1   8
ATOM      8  C   LIG    1       -4.242  -6.182   0.009  0.00  0.00    +0.010 C 
BRANCH   8   9
ATOM      9  C   LIG    1       -5.677  -6.712   0.020  0.00  0.00    +0.010 C 
BRANCH   9  10
ATOM     10  C   LIG    1       -5.657  -8.242   0.012  0.00  0.00    -0.010 C 
ATOM     11  C   LIG    1       -5.027  -8.750   1.310  0.00  0.00    +0.020 C 
BRANCH  10  12
ATOM     12  C   LIG    1       -7.088  -8.771  -0.103  0.00  0.00    +0.160 C 
BRANCH  12  13
ATOM     13  O   LIG    1       -7.061 -10.194  -0.228  0.00  0.00    -0.570 OA
ATOM     14  H   LIG    1       -7.936 -10.598  -0.306  0.00  0.00    +0.380 HD
ENDBRANCH  12  13
ENDBRANCH  10  12
ENDBRANCH   9  10
ENDBRANCH   8   9
ENDBRANCH   1   8
TORSDOF 10
ENDMDL
MODEL        4
REMARK  Name = ZINC000002015844
REMARK                            x       y       z     vdW  Elec       q    Type
REMARK                         _______ _______ _______ _____ _____    ______ ____
ROOT
ATOM      1  C   LIG    1       -4.263  -4.652   0.018  0.00  0.00    +0.000 C 
ENDROOT
BRANCH   1   2
ATOM      2  C   LIG    1       -2.827  -4.123   0.007  0.00  0.00    +0.000 C 
BRANCH   2   3
ATOM      3  C   LIG    1       -2.848  -2.593   0.015  0.00  0.00    +0.000 C 
BRANCH   3   4
ATOM      4  C   LIG    1       -1.413  -2.063   0.004  0.00  0.00    +0.000 C 
BRANCH   4   5
ATOM      5  C   LIG    1       -1.433  -0.534   0.013  0.00  0.00    +0.000 C 
BRANCH   5   7
ATOM      6  C   LIG    1       -0.019   1.526   0.010  0.00  0.00    +0.000 C 
ATOM      7  C   LIG    1        0.002  -0.004   0.002  0.00  0.00    -0.010 C 
ENDBRANCH   5   7
ENDBRANCH   4   5
ENDBRANCH   3   4
ENDBRANCH   2   3
ENDBRANCH   1   2
BRANCH   1   8
ATOM      8  C   LIG    1       -4.242  -6.182   0.009  0.00  0.00    +0.010 C 
BRANCH   8   9
ATOM      9  C   LIG    1       -5.677  -6.712   0.020  0.00  0.00    +0.010 C 
BRANCH   9  10
ATOM     10  C   LIG    1       -5.657  -8.242   0.012  0.00  0.00    -0.010 C 
ATOM     11  C   LIG    1       -5.053  -8.736  -1.304  0.00  0.00    +0.020 C 
BRANCH  10  12
ATOM     12  C   LIG    1       -7.085  -8.772   0.148  0.00  0.00    +0.160 C 
BRANCH  12  13
ATOM     13  O   LIG    1       -7.056 -10.196   0.258  0.00  0.00    -0.570 OA
ATOM     14  H   LIG    1       -7.929 -10.602   0.347  0.00  0.00    +0.380 HD
ENDBRANCH  12  13
ENDBRANCH  10  12
ENDBRANCH   9  10
ENDBRANCH   8   9
ENDBRANCH   1   8
TORSDOF 10
ENDMDL
MODEL        5
REMARK  Name = ZINC000002029328
REMARK                            x       y       z     vdW  Elec       q    Type
REMARK                         _______ _______ _______ _____ _____    ______ ____
ROOT
ATOM      1  C   LIG    1        1.476  -4.051  -2.532  0.00  0.00    +0.000 C 
ENDROOT
BRANCH   1   2
ATOM      2  C   LIG    1        1.455  -2.521  -2.524  0.00  0.00    +0.000 C 
BRANCH   2   3
ATOM      3  C   LIG    1        0.739  -2.027  -1.265  0.00  0.00    +0.000 C 
BRANCH   3   4
ATOM      4  C   LIG    1        0.718  -0.497  -1.257  0.00  0.00    +0.000 C 
BRANCH   4   6
ATOM      5  C   LIG    1       -0.019   1.526   0.010  0.00  0.00    +0.000 C 
ATOM      6  C   LIG    1        0.002  -0.004   0.002  0.00  0.00    -0.010 C 
ENDBRANCH   4   6
ENDBRANCH   3   4
ENDBRANCH   2   3
ENDBRANCH   1   2
BRANCH   1   7
ATOM      7  C   LIG    1        2.192  -4.544  -3.791  0.00  0.00    +0.000 C 
BRANCH   7   8
ATOM      8  C   LIG    1        2.213  -6.074  -3.800  0.00  0.00    +0.000 C 
BRANCH   8   9
ATOM      9  C   LIG    1        2.929  -6.567  -5.058  0.00  0.00    +0.020 C 
BRANCH   9  10
ATOM     10  C   LIG    1        2.950  -8.097  -5.067  0.00  0.00    +0.160 C 
BRANCH  10  11
ATOM     11  O   LIG    1        3.619  -8.558  -6.243  0.00  0.00    -0.390 OA
ATOM     12  C   LIG    1        3.693  -9.981  -6.349  0.00  0.00    +0.200 C 
ENDBRANCH  10  11
ENDBRANCH   9  10
ENDBRANCH   8   9
ENDBRANCH   7   8
ENDBRANCH   1   7
TORSDOF 9
ENDMDL
MODEL        6
REMARK  Name = ZINC000002564178
REMARK                            x       y       z     vdW  Elec       q    Type
REMARK                         _______ _______ _______ _____ _____    ______ ____
ROOT
ATOM      1  C   LIG    1        0.774  -4.615  -1.279  0.00  0.00    +0.150 C 
ENDROOT
BRANCH   1   3
ATOM      2  C   LIG    1        0.738  -1.969  -1.265  0.00  0.00    -0.190 C 
ATOM      3  C   LIG    1        0.754  -3.143  -1.271  0.00  0.00    -0.190 C 
BRANCH   2   4
ATOM      4  C   LIG    1        0.718  -0.497  -1.257  0.00  0.00    +0.150 C 
BRANCH   4   6
ATOM      5  C   LIG    1       -0.019   1.526   0.010  0.00  0.00    +0.030 C 
ATOM      6  C   LIG    1        0.002  -0.004   0.002  0.00  0.00    +0.000 C 
ENDBRANCH   4   6
ENDBRANCH   2   4
ENDBRANCH   1   3
BRANCH   1   7
ATOM      7  C   LIG    1        1.490  -5.109  -2.538  0.00  0.00    +0.020 C 
BRANCH   7   8
ATOM      8  C   LIG    1        1.511  -6.638  -2.547  0.00  0.00    +0.000 C 
BRANCH   8   9
ATOM      9  C   LIG    1        2.227  -7.132  -3.805  0.00  0.00    +0.000 C 
BRANCH   9  10
ATOM     10  C   LIG    1        2.248  -8.662  -3.814  0.00  0.00    -0.010 C 
ATOM     11  C   LIG    1        2.964  -9.155  -5.073  0.00  0.00    +0.000 C 
ENDBRANCH   9  10
ENDBRANCH   8   9
ENDBRANCH   7   8
ENDBRANCH   1   7
TORSDOF 7
ENDMDL
MODEL        7
REMARK  Name = ZINC000002564092
REMARK                            x       y       z     vdW  Elec       q    Type
REMARK                         _______ _______ _______ _____ _____    ______ ____
ROOT
ATOM      1  C   LIG    1        1.324  -0.740  -0.012  0.00  0.00    +0.010 C 
ENDROOT
BRANCH   1   3
ATOM      2  C   LIG    1        0.261   1.453  -0.170  0.00  0.00    -0.010 C 
ATOM      3  C   LIG    1        0.113   0.157  -0.042  0.00  0.00    -0.110 C 
ATOM      4  C   LIG    1       -1.267  -0.435   0.074  0.00  0.00    +0.070 C 
ENDBRANCH   1   3
BRANCH   1   5
ATOM      5  C   LIG    1        1.360  -1.503   1.314  0.00  0.00    +0.000 C 
ATOM      6  C   LIG    1        1.572  -0.517   2.464  0.00  0.00    +0.010 C 
ENDBRANCH   1   5
BRANCH   1   7
ATOM      7  C   LIG    1        1.250  -1.736  -1.171  0.00  0.00    +0.010 C 
BRANCH   7   8
ATOM      8  C   LIG    1        1.355  -0.981  -2.498  0.00  0.00    +0.000 C 
BRANCH   8   9
ATOM      9  C   LIG    1        1.410  -1.985  -3.652  0.00  0.00    -0.010 C 
ATOM     10  C   LIG    1        1.516  -1.230  -4.979  0.00  0.00    +0.000 C 
ENDBRANCH   8   9
ENDBRANCH   7   8
ENDBRANCH   1   7
TORSDOF 5
ENDMDL
MODEL        8
REMARK  Name = ZINC000002560461
REMARK                            x       y       z     vdW  Elec       q    Type
REMARK                         _______ _______ _______ _____ _____    ______ ____
ROOT
ATOM      1  C   LIG    1       -4.263  -4.652   0.018  0.00  0.00    +0.000 C 
ENDROOT
BRANCH   1   2
ATOM      2  C   LIG    1       -2.827  -4.123   0.007  0.00  0.00    +0.000 C 
BRANCH   2   3
ATOM      3  C   LIG    1       -2.848  -2.593   0.015  0.00  0.00    +0.000 C 
BRANCH   3   4
ATOM      4  C   LIG    1       -1.413  -2.063   0.004  0.00  0.00    +0.000 C 
BRANCH   4   5
ATOM      5  C   LIG    1       -1.433  -0.534   0.013  0.00  0.00    +0.000 C 
BRANCH   5   7
ATOM      6  C   LIG    1       -0.019   1.526   0.010  0.00  0.00    +0.000 C 
ATOM      7  C   LIG    1        0.002  -0.004   0.002  0.00  0.00    -0.010 C 
ENDBRANCH   5   7
ENDBRANCH   4   5
ENDBRANCH   3   4
ENDBRANCH   2   3
ENDBRANCH   1   2
BRANCH   1   8
ATOM      8  C   LIG    1       -4.242  -6.182   0.009  0.00  0.00    +0.000 C 
BRANCH   8   9
ATOM      9  C   LIG    1       -5.677  -6.712   0.020  0.00  0.00    +0.050 C 
BRANCH   9  10
ATOM     10  C   LIG    1       -5.657  -8.219   0.012  0.00  0.00    -0.030 C 
ATOM     11  C   LIG    1       -6.290  -8.887   0.944  0.00  0.00    -0.050 C 
BRANCH  11  12
ATOM     12  C   LIG    1       -6.269 -10.394   0.935  0.00  0.00    +0.200 C 
BRANCH  12  13
ATOM     13  O   LIG    1       -6.016 -10.875   2.257  0.00  0.00    -0.570 OA
ATOM     14  H   LIG    1       -5.989 -11.839   2.327  0.00  0.00    +0.380 HD
ENDBRANCH  12  13
ENDBRANCH  11  12
ENDBRANCH   9  10
ENDBRANCH   8   9
ENDBRANCH   1   8
TORSDOF 10
ENDMDL
MODEL        9
REMARK  Name = ZINC000005119379
REMARK                            x       y       z     vdW  Elec       q    Type
REMARK                         _______ _______ _______ _____ _____    ______ ____
ROOT
ATOM      1  C   LIG    1        0.512  -0.249  -3.437  0.00  0.00    +0.180 C 
ENDROOT
BRANCH   1   2
ATOM      2  C   LIG    1        1.143   0.519  -4.569  0.00  0.00    -0.080 A 
ATOM      3  C   LIG    1        1.130   1.901  -4.558  0.00  0.00    +0.010 A 
ATOM      4  C   LIG    1        1.709   2.606  -5.597  0.00  0.00    +0.000 A 
ATOM      5  C   LIG    1        2.302   1.929  -6.646  0.00  0.00    +0.010 A 
ATOM      6  C   LIG    1        2.317   0.546  -6.656  0.00  0.00    +0.010 A 
ATOM      7  C   LIG    1        1.741  -0.158  -5.615  0.00  0.00    +0.030 A 
ENDBRANCH   1   2
BRANCH   1   8
ATOM      8  C   LIG    1        1.200   0.122  -2.122  0.00  0.00    +0.040 C 
ATOM      9  C   LIG    1        2.687  -0.227  -2.208  0.00  0.00    +0.040 C 
BRANCH   8  12
ATOM     10  C   LIG    1       -0.018   1.503   0.010  0.00  0.00    +0.060 C 
ATOM     11  C   LIG    1        0.002  -0.004   0.002  0.00  0.00    -0.040 C 
ATOM     12  C   LIG    1        0.569  -0.646  -0.989  0.00  0.00    -0.050 C 
ENDBRANCH   8  12
ENDBRANCH   1   8
BRANCH   1  13
ATOM     13  C   LIG    1       -0.919   0.086  -3.354  0.00  0.00    +0.210 C 
ATOM     14  N   LIG    1       -2.023   0.345  -3.289  0.00  0.00    -0.420 NA
ENDBRANCH   1  13
TORSDOF 4
ENDMDL
MODEL       10
REMARK  Name = ZINC000034108539
REMARK                            x       y       z     vdW  Elec       q    Type
REMARK                         _______ _______ _______ _____ _____    ______ ____
ROOT
ATOM      1  C   LIG    1        4.247   6.116  -0.006  0.00  0.00    +0.000 C 
ENDROOT
BRANCH   1   2
ATOM      2  C   LIG    1        2.811   5.587   0.005  0.00  0.00    +0.000 C 
BRANCH   2   3
ATOM      3  C   LIG    1        2.832   4.057  -0.003  0.00  0.00    +0.000 C 
BRANCH   3   4
ATOM      4  C   LIG    1        1.397   3.527   0.008  0.00  0.00    +0.000 C 
BRANCH   4   5
ATOM      5  C   LIG    1        1.417   1.997  -0.001  0.00  0.00    +0.020 C 
BRANCH   5   6
ATOM      6  C   LIG    1       -0.018   1.468   0.010  0.00  0.00    +0.170 C 
BRANCH   6   8
ATOM      7  C   LIG    1        0.018  -1.178  -0.004  0.00  0.00    +0.010 C 
ATOM      8  C   LIG    1        0.002  -0.004   0.002  0.00  0.00    -0.190 C 
ENDBRANCH   6   8
ENDBRANCH   5   6
ENDBRANCH   4   5
ENDBRANCH   3   4
ENDBRANCH   2   3
ENDBRANCH   1   2
BRANCH   1   9
ATOM      9  C   LIG    1        4.226   7.646   0.003  0.00  0.00    +0.000 C 
BRANCH   9  10
ATOM     10  C   LIG    1        5.661   8.176  -0.008  0.00  0.00    +0.000 C 
BRANCH  10  11
ATOM     11  C   LIG    1        5.641   9.705   0.000  0.00  0.00    +0.000 C 
BRANCH  11  12
ATOM     12  C   LIG    1        7.076  10.235  -0.011  0.00  0.00    +0.020 C 
BRANCH  12  13
ATOM     13  C   LIG    1        7.055  11.765  -0.002  0.00  0.00    +0.150 C 
BRANCH  13  14
ATOM     14  O   LIG    1        8.396  12.259  -0.012  0.00  0.00    -0.580 OA
ATOM     15  H   LIG    1        8.459  13.224  -0.008  0.00  0.00    +0.380 HD
ENDBRANCH  13  14
ENDBRANCH  12  13
ENDBRANCH  11  12
ENDBRANCH  10  11
ENDBRANCH   9  10
ENDBRANCH   1   9
TORSDOF 12
ENDMDL
MODEL       11
REMARK  Name = ZINC000008085147
REMARK                            x       y       z     vdW  Elec       q    Type
REMARK                         _______ _______ _______ _____ _____    ______ ____
ROOT
ATOM      1  C   LIG    1        0.731  -0.503   1.223  0.00  0.00    -0.080 A 
ATOM      2  C   LIG    1        2.099  -0.709   1.172  0.00  0.00    +0.020 A 
ATOM      3  C   LIG    1        2.772  -1.166   2.286  0.00  0.00    +0.030 A 
ATOM      4  C   LIG    1        2.071  -1.421   3.467  0.00  0.00    +0.070 A 
ATOM      5  C   LIG    1        0.690  -1.211   3.510  0.00  0.00    -0.020 A 
ATOM      6  C   LIG    1        0.030  -0.749   2.391  0.00  0.00    +0.030 A 
ENDROOT
BRANCH   1   8
ATOM      7  C   LIG    1       -0.019   1.526   0.010  0.00  0.00    +0.030 C 
ATOM      8  C   LIG    1        0.002  -0.004   0.002  0.00  0.00    +0.050 C 
ENDBRANCH   1   8
BRANCH   4   9
ATOM      9  N   LIG    1        2.732  -1.874   4.574  0.00  0.00    -0.470 NA
ATOM     10  C   LIG    1        2.480  -1.350   5.746  0.00  0.00    +0.360 C 
BRANCH  10  11
ATOM     11  C   LIG    1        3.166  -1.820   6.895  0.00  0.00    -0.010 A 
ATOM     12  C   LIG    1        2.996  -1.365   8.184  0.00  0.00    +0.010 A 
ATOM     13  C   LIG    1        3.873  -2.109   8.989  0.00  0.00    -0.060 A 
ATOM     14  C   LIG    1        4.528  -2.968   8.178  0.00  0.00    +0.200 A 
ATOM     15  O   LIG    1        4.097  -2.796   6.921  0.00  0.00    -0.150 OA
ENDBRANCH  10  11
ENDBRANCH   4   9
TORSDOF 3
ENDMDL
MODEL       12
REMARK  Name = ZINC000005829535
REMARK                            x       y       z     vdW  Elec       q    Type
REMARK                         _______ _______ _______ _____ _____    ______ ____
ROOT
ATOM      1  C   LIG    1        2.034  -0.604  -3.478  0.00  0.00    -0.180 C 
ATOM      2  C   LIG    1        2.320  -0.059  -4.643  0.00  0.00    -0.070 C 
ATOM      3  C   LIG    1        2.770  -0.842  -5.842  0.00  0.00    +0.070 C 
ATOM      4  C   LIG    1        3.247  -2.232  -5.415  0.00  0.00    +0.020 C 
ATOM      5  C   LIG    1        2.176  -2.858  -4.513  0.00  0.00    +0.030 C 
ATOM      6  C   LIG    1        2.190   1.436  -4.779  0.00  0.00    +0.070 C 
ATOM      7  C   LIG    1        2.134  -2.075  -3.198  0.00  0.00    -0.010 C 
ATOM      8  C   LIG    1        0.915  -2.514  -2.384  0.00  0.00    +0.030 C 
ATOM      9  C   LIG    1        3.406  -2.361  -2.396  0.00  0.00    +0.040 C 
ENDROOT
BRANCH   1  10
ATOM     10  C   LIG    1        1.595   0.281  -2.388  0.00  0.00    +0.430 C 
ATOM     11  O   LIG    1        0.527   0.858  -2.465  0.00  0.00    -0.450 OA
BRANCH  10  14
ATOM     12  C   LIG    1        0.751   2.022  -0.336  0.00  0.00    +0.090 C 
ATOM     13  C   LIG    1        2.063   1.289  -0.229  0.00  0.00    +0.060 C 
ATOM     14  C   LIG    1        2.449   0.470  -1.206  0.00  0.00    -0.120 C 
ENDBRANCH  10  14
ENDBRANCH   1  10
TORSDOF 2
ENDMDL
MODEL       13
REMARK  Name = ZINC000006030810
REMARK                            x       y       z     vdW  Elec       q    Type
REMARK                         _______ _______ _______ _____ _____    ______ ____
ROOT
ATOM      1  C   LIG    1        0.016  -2.809  -2.585  0.00  0.00    +0.020 C 
ATOM      2  C   LIG    1       -1.222  -3.705  -2.659  0.00  0.00    +0.000 C 
ATOM      3  C   LIG    1       -1.198  -4.706  -1.502  0.00  0.00    +0.000 C 
ATOM      4  C   LIG    1        0.063  -5.568  -1.599  0.00  0.00    +0.010 C 
ATOM      5  C   LIG    1        1.301  -4.672  -1.525  0.00  0.00    +0.010 C 
ATOM      6  C   LIG    1       -2.482  -2.843  -2.561  0.00  0.00    +0.030 C 
ATOM      7  C   LIG    1        1.276  -3.671  -2.683  0.00  0.00    -0.050 C 
ATOM      8  C   LIG    1        2.514  -2.775  -2.609  0.00  0.00    +0.030 C 
ATOM      9  C   LIG    1        1.274  -4.429  -4.012  0.00  0.00    +0.020 C 
ENDROOT
BRANCH   1  11
ATOM     10  C   LIG    1       -0.000  -0.729  -1.269  0.00  0.00    -0.130 C 
ATOM     11  C   LIG    1        0.018  -2.063  -1.276  0.00  0.00    +0.090 C 
BRANCH  10  13
ATOM     12  C   LIG    1       -0.018   1.503   0.010  0.00  0.00    +0.050 C 
ATOM     13  C   LIG    1        0.002  -0.004   0.002  0.00  0.00    +0.380 C 
ATOM     14  O   LIG    1        0.020  -0.616   1.049  0.00  0.00    -0.470 OA
ENDBRANCH  10  13
ENDBRANCH   1  11
TORSDOF 2
ENDMDL
MODEL       14
REMARK  Name = ZINC000085388964
REMARK                            x       y       z     vdW  Elec       q    Type
REMARK                         _______ _______ _______ _____ _____    ______ ____
ROOT
ATOM      1  C   LIG    1       -0.017   1.428   0.010  0.00  0.00    -0.010 A 
ATOM      2  C   LIG    1       -1.232   2.109   0.031  0.00  0.00    +0.090 A 
ATOM      3  C   LIG    1       -1.239   3.498   0.038  0.00  0.00    -0.120 A 
ATOM      4  C   LIG    1       -0.033   4.214   0.025  0.00  0.00    +0.090 A 
ATOM      5  O   LIG    1       -0.319   5.535   0.035  0.00  0.00    -0.200 OA
ATOM      6  C   LIG    1       -1.652   5.754   0.056  0.00  0.00    +0.080 A 
ATOM      7  C   LIG    1       -2.408   6.921   0.072  0.00  0.00    +0.030 A 
ATOM      8  C   LIG    1       -3.785   6.852   0.089  0.00  0.00    +0.060 A 
ATOM      9  C   LIG    1       -4.430   5.626   0.093  0.00  0.00    +0.000 A 
ATOM     10  C   LIG    1       -3.697   4.458   0.077  0.00  0.00    +0.070 A 
ATOM     11  C   LIG    1        1.173   3.521   0.004  0.00  0.00    +0.030 A 
ATOM     12  C   LIG    1       -2.308   4.516   0.059  0.00  0.00    -0.120 A 
ATOM     13  C   LIG    1        1.183   2.145   0.002  0.00  0.00    +0.080 A 
ENDROOT
BRANCH   1  15
ATOM     14  C   LIG    1        0.018  -1.178  -0.004  0.00  0.00    +0.070 C 
ATOM     15  C   LIG    1        0.002  -0.004   0.002  0.00  0.00    -0.150 C 
ENDBRANCH   1  15
TORSDOF 1
ENDMDL
MODEL       15
REMARK  Name = ZINC000098090980
REMARK                            x       y       z     vdW  Elec       q    Type
REMARK                         _______ _______ _______ _____ _____    ______ ____
ROOT
ATOM      1  C   LIG    1        0.018  -1.178  -0.004  0.00  0.00    -0.130 C 
ATOM      2  C   LIG    1        0.002  -0.004   0.002  0.00  0.00    -0.130 C 
ENDROOT
BRANCH   1   3
ATOM      3  C   LIG    1        0.037  -2.610  -0.012  0.00  0.00    -0.020 C 
ATOM      4  C   LIG    1        1.209  -3.216  -0.021  0.00  0.00    -0.010 C 
ATOM      5  C   LIG    1        1.376  -4.707  -0.039  0.00  0.00    +0.070 C 
ATOM      6  C   LIG    1        0.071  -5.388   0.379  0.00  0.00    +0.020 C 
ATOM      7  C   LIG    1       -1.076  -4.789  -0.443  0.00  0.00    +0.020 C 
ATOM      8  C   LIG    1       -1.277  -3.335  -0.004  0.00  0.00    +0.070 C 
ENDBRANCH   1   3
BRANCH   2   9
ATOM      9  C   LIG    1       -0.017   1.428   0.010  0.00  0.00    -0.020 C 
ATOM     10  C   LIG    1       -1.188   2.034   0.030  0.00  0.00    -0.010 C 
ATOM     11  C   LIG    1       -1.356   3.525   0.031  0.00  0.00    +0.070 C 
ATOM     12  C   LIG    1       -0.044   4.202   0.431  0.00  0.00    +0.020 C 
ATOM     13  C   LIG    1        1.088   3.612  -0.418  0.00  0.00    +0.020 C 
ATOM     14  C   LIG    1        1.297   2.153   0.001  0.00  0.00    +0.070 C 
ENDBRANCH   2   9
TORSDOF 2
ENDMDL
MODEL       16
REMARK  Name = ZINC000087489325
REMARK                            x       y       z     vdW  Elec       q    Type
REMARK                         _______ _______ _______ _____ _____    ______ ____
ROOT
ATOM      1  C   LIG    1       -0.017   1.428   0.010  0.00  0.00    -0.100 A 
ATOM      2  C   LIG    1       -1.130   2.193   0.030  0.00  0.00    -0.070 A 
ATOM      3  C   LIG    1       -0.895   3.551   0.034  0.00  0.00    +0.020 A 
ATOM      4  C   LIG    1        0.395   3.903   0.017  0.00  0.00    -0.040 A 
ATOM      5  S   LIG    1        1.405   2.463   0.002  0.00  0.00    +0.130 S 
ENDROOT
BRANCH   1   7
ATOM      6  C   LIG    1        0.018  -1.178  -0.004  0.00  0.00    +0.070 C 
ATOM      7  C   LIG    1        0.002  -0.004   0.002  0.00  0.00    -0.130 C 
ENDBRANCH   1   7
BRANCH   2   8
ATOM      8  C   LIG    1       -2.519   1.608   0.049  0.00  0.00    +0.090 C 
BRANCH   8   9
ATOM      9  C   LIG    1       -2.919   1.287   1.490  0.00  0.00    +0.010 C 
BRANCH   9  10
ATOM     10  C   LIG    1       -4.329   0.693   1.508  0.00  0.00    +0.000 C 
BRANCH  10  11
ATOM     11  C   LIG    1       -4.728   0.372   2.950  0.00  0.00    +0.000 C 
BRANCH  11  12
ATOM     12  C   LIG    1       -6.138  -0.221   2.968  0.00  0.00    -0.010 C 
ATOM     13  C   LIG    1       -6.538  -0.542   4.410  0.00  0.00    +0.000 C 
ENDBRANCH  11  12
ENDBRANCH  10  11
ENDBRANCH   9  10
ENDBRANCH   8   9
ENDBRANCH   2   8
TORSDOF 6
ENDMDL
MODEL       17
REMARK  Name = ZINC000136708085
REMARK                            x       y       z     vdW  Elec       q    Type
REMARK                         _______ _______ _______ _____ _____    ______ ____
ROOT
ATOM      1  C   LIG    1        0.018  -1.178  -0.004  0.00  0.00    -0.130 C 
ATOM      2  C   LIG    1        0.002  -0.004   0.002  0.00  0.00    -0.120 C 
ENDROOT
BRANCH   1   3
ATOM      3  C   LIG    1        0.037  -2.610  -0.012  0.00  0.00    +0.010 A 
ATOM      4  C   LIG    1        1.255  -3.296  -0.022  0.00  0.00    +0.030 A 
ATOM      5  C   LIG    1        1.266  -4.675  -0.029  0.00  0.00    +0.010 A 
ATOM      6  C   LIG    1        0.075  -5.379  -0.027  0.00  0.00    +0.020 A 
ATOM      7  C   LIG    1       -1.135  -4.707  -0.018  0.00  0.00    +0.010 A 
ATOM      8  C   LIG    1       -1.161  -3.329  -0.005  0.00  0.00    +0.030 A 
ENDBRANCH   1   3
BRANCH   2   9
ATOM      9  C   LIG    1       -0.017   1.428   0.010  0.00  0.00    -0.030 C 
ATOM     10  C   LIG    1       -1.188   2.033   0.030  0.00  0.00    -0.010 C 
ATOM     11  C   LIG    1       -1.356   3.525   0.031  0.00  0.00    +0.070 C 
ATOM     12  C   LIG    1       -0.043   4.202   0.431  0.00  0.00    +0.020 C 
ATOM     13  C   LIG    1        1.088   3.611  -0.418  0.00  0.00    +0.020 C 
ATOM     14  C   LIG    1        1.297   2.153   0.001  0.00  0.00    +0.070 C 
ENDBRANCH   2   9
TORSDOF 2
ENDMDL
MODEL       18
REMARK  Name = ZINC000016942233
REMARK                            x       y       z     vdW  Elec       q    Type
REMARK                         _______ _______ _______ _____ _____    ______ ____
ROOT
ATOM      1  C   LIG    1       -0.018   1.503   0.010  0.00  0.00    +0.090 C 
ATOM      2  C   LIG    1        0.002  -0.004   0.002  0.00  0.00    -0.090 A 
ATOM      3  C   LIG    1        0.006  -0.686  -1.208  0.00  0.00    +0.040 A 
ATOM      4  C   LIG    1        0.024  -2.050  -1.246  0.00  0.00    +0.050 A 
ATOM      5  C   LIG    1        0.039  -2.783  -0.045  0.00  0.00    +0.150 A 
ATOM      6  N   LIG    1        0.058  -4.119  -0.054  0.00  0.00    -0.490 NA
ATOM      7  C   LIG    1        0.073  -4.842   1.042  0.00  0.00    +0.190 A 
ATOM      8  C   LIG    1        0.072  -4.286   2.305  0.00  0.00    -0.110 A 
ATOM      9  C   LIG    1        0.053  -2.869   2.437  0.00  0.00    +0.170 A 
ATOM     10  C   LIG    1        0.093  -6.344   0.915  0.00  0.00    +0.130 C 
ATOM     11  C   LIG    1        0.036  -2.084   1.186  0.00  0.00    -0.080 A 
ATOM     12  C   LIG    1        0.023  -0.696   1.198  0.00  0.00    +0.060 A 
ENDROOT
BRANCH   9  13
ATOM     13  N   LIG    1        0.052  -2.286   3.619  0.00  0.00    -0.320 NA
ATOM     14  N   LIG    1        0.066  -2.909   4.554  0.00  0.00    +0.280 NA
ATOM     15  N   LIG    1        0.080  -3.533   5.489  0.00  0.00    -0.090 NA
ENDBRANCH   9  13
TORSDOF 1
ENDMDL
MODEL       19
REMARK  Name = ZINC000017157285
REMARK                            x       y       z     vdW  Elec       q    Type
REMARK                         _______ _______ _______ _____ _____    ______ ____
ROOT
ATOM      1  N   LIG    1        1.706  -3.502   2.762  0.00  0.00    -0.490 NA
ATOM      2  C   LIG    1        0.733  -2.949   3.406  0.00  0.00    +0.150 C 
ATOM      3  C   LIG    1        1.018  -1.883   4.433  0.00  0.00    +0.130 C 
ENDROOT
BRANCH   2   4
ATOM      4  C   LIG    1       -0.659  -3.360   3.137  0.00  0.00    +0.150 C 
ATOM      5  N   LIG    1       -1.266  -4.158   3.951  0.00  0.00    -0.490 NA
ATOM      6  C   LIG    1       -1.372  -2.848   1.912  0.00  0.00    +0.140 C 
BRANCH   5   7
ATOM      7  C   LIG    1       -0.600  -4.595   5.181  0.00  0.00    +0.160 C 
BRANCH   7   8
ATOM      8  C   LIG    1       -1.354  -4.045   6.393  0.00  0.00    +0.020 C 
BRANCH   8   9
ATOM      9  C   LIG    1       -0.659  -4.502   7.677  0.00  0.00    +0.000 C 
ATOM     10  C   LIG    1       -1.413  -3.952   8.889  0.00  0.00    +0.020 C 
ENDBRANCH   8   9
ENDBRANCH   7   8
ENDBRANCH   5   7
ENDBRANCH   2   4
BRANCH   1  11
ATOM     11  C   LIG    1        1.425  -4.491   1.718  0.00  0.00    +0.160 C 
BRANCH  11  12
ATOM     12  C   LIG    1        1.903  -3.957   0.367  0.00  0.00    +0.020 C 
BRANCH  12  14
ATOM     13  C   LIG    1        2.087  -4.455  -2.075  0.00  0.00    +0.020 C 
ATOM     14  C   LIG    1        1.609  -4.989  -0.723  0.00  0.00    +0.000 C 
ENDBRANCH  12  14
ENDBRANCH  11  12
ENDBRANCH   1  11
TORSDOF 7
ENDMDL
MODEL       20
REMARK  Name = ZINC000018084575
REMARK                            x       y       z     vdW  Elec       q    Type
REMARK                         _______ _______ _______ _____ _____    ______ ____
ROOT
ATOM      1  N   LIG    1       -0.127  -4.204   0.214  0.00  0.00    -0.490 NA
ATOM      2  C   LIG    1        0.934  -4.785   0.697  0.00  0.00    +0.390 C 
ENDROOT
BRANCH   1   7
ATOM      3  C   LIG    1       -2.331   0.280   2.842  0.00  0.00    +0.100 C 
ATOM      4  C   LIG    1       -1.742  -0.917   2.141  0.00  0.00    -0.100 A 
ATOM      5  C   LIG    1       -1.383  -0.826   0.807  0.00  0.00    +0.030 A 
ATOM      6  C   LIG    1       -0.845  -1.918   0.159  0.00  0.00    -0.010 A 
ATOM      7  C   LIG    1       -0.662  -3.117   0.851  0.00  0.00    +0.100 A 
ATOM      8  C   LIG    1       -1.026  -3.201   2.197  0.00  0.00    -0.020 A 
ATOM      9  C   LIG    1       -1.559  -2.100   2.834  0.00  0.00    +0.030 A 
ENDBRANCH   1   7
BRANCH   2  10
ATOM     10  C   LIG    1        1.832  -4.046   1.600  0.00  0.00    -0.140 A 
ATOM     11  C   LIG    1        2.846  -4.718   2.288  0.00  0.00    +0.050 A 
ATOM     12  C   LIG    1        3.683  -4.019   3.132  0.00  0.00    +0.000 A 
ATOM     13  C   LIG    1        3.521  -2.655   3.299  0.00  0.00    +0.030 A 
ATOM     14  C   LIG    1        2.519  -1.982   2.621  0.00  0.00    +0.000 A 
ATOM     15  C   LIG    1        1.679  -2.667   1.769  0.00  0.00    +0.040 A 
ENDBRANCH   2  10
TORSDOF 2
ENDMDL
MODEL       21
REMARK  Name = ZINC000016970942
REMARK                            x       y       z     vdW  Elec       q    Type
REMARK                         _______ _______ _______ _____ _____    ______ ____
ROOT
ATOM      1  C   LIG    1        0.295   1.114   0.044  0.00  0.00    +0.100 C 
ATOM      2  C   LIG    1        0.342  -0.315  -0.433  0.00  0.00    -0.210 C 
ATOM      3  C   LIG    1        0.213  -1.315   0.441  0.00  0.00    +0.070 C 
ENDROOT
BRANCH   3   4
ATOM      4  C   LIG    1       -0.082  -1.018   1.888  0.00  0.00    -0.050 C 
ATOM      5  C   LIG    1        1.117  -0.305   2.517  0.00  0.00    +0.040 C 
ATOM      6  C   LIG    1       -0.345  -2.328   2.634  0.00  0.00    +0.040 C 
ATOM      7  C   LIG    1       -1.317  -0.120   1.983  0.00  0.00    +0.030 C 
ENDBRANCH   3   4
BRANCH   2   8
ATOM      8  C   LIG    1        0.529  -0.605  -1.855  0.00  0.00    +0.400 C 
ATOM      9  O   LIG    1        0.452  -1.747  -2.256  0.00  0.00    -0.460 OA
BRANCH   8  10
ATOM     10  C   LIG    1        0.816   0.516  -2.821  0.00  0.00    -0.110 C 
ATOM     11  C   LIG    1        2.205   1.090  -2.538  0.00  0.00    +0.060 C 
ATOM     12  C   LIG    1       -0.235   1.616  -2.653  0.00  0.00    +0.040 C 
ATOM     13  C   LIG    1        0.767  -0.021  -4.253  0.00  0.00    +0.040 C 
ENDBRANCH   8  10
ENDBRANCH   2   8
TORSDOF 3
ENDMDL
MODEL       22
REMARK  Name = ZINC000001646242
REMARK                            x       y       z     vdW  Elec       q    Type
REMARK                         _______ _______ _______ _____ _____    ______ ____
ROOT
ATOM      1  C   LIG    1        1.184   1.476   0.727  0.00  0.00    +0.100 C 
ATOM      2  C   LIG    1        0.462   0.219   0.317  0.00  0.00    -0.200 C 
ATOM      3  C   LIG    1        0.094  -0.670   1.242  0.00  0.00    +0.040 C 
ENDROOT
BRANCH   3   4
ATOM      4  C   LIG    1       -0.457  -2.009   0.822  0.00  0.00    -0.050 C 
ATOM      5  C   LIG    1       -1.950  -1.873   0.514  0.00  0.00    +0.030 C 
ATOM      6  C   LIG    1       -0.260  -3.019   1.954  0.00  0.00    +0.040 C 
ATOM      7  C   LIG    1        0.279  -2.494  -0.428  0.00  0.00    +0.020 C 
ENDBRANCH   3   4
BRANCH   2   8
ATOM      8  C   LIG    1        0.166  -0.028  -1.094  0.00  0.00    +0.420 C 
ATOM      9  O   LIG    1       -0.977  -0.230  -1.447  0.00  0.00    -0.440 OA
BRANCH   8  10
ATOM     10  C   LIG    1        1.280  -0.030  -2.108  0.00  0.00    -0.110 C 
ATOM     11  C   LIG    1        2.331  -1.068  -1.709  0.00  0.00    +0.050 C 
ATOM     12  C   LIG    1        1.926   1.356  -2.160  0.00  0.00    +0.060 C 
ATOM     13  C   LIG    1        0.714  -0.381  -3.486  0.00  0.00    +0.040 C 
ENDBRANCH   8  10
ENDBRANCH   2   8
TORSDOF 3
ENDMDL
MODEL       23
REMARK  Name = ZINC000067794431
REMARK                            x       y       z     vdW  Elec       q    Type
REMARK                         _______ _______ _______ _____ _____    ______ ____
ROOT
ATOM      1  C   LIG    1        1.444  -2.513  -2.505  0.00  0.00    -0.080 A 
ATOM      2  C   LIG    1        0.724  -2.741  -3.664  0.00  0.00    +0.060 A 
ATOM      3  C   LIG    1        1.362  -3.188  -4.807  0.00  0.00    +0.040 A 
ATOM      4  C   LIG    1        2.725  -3.408  -4.798  0.00  0.00    +0.000 A 
ATOM      5  C   LIG    1        3.459  -3.180  -3.631  0.00  0.00    -0.010 A 
ATOM      6 CL   LIG    1        3.526  -3.968  -6.234  0.00  0.00    -0.050 Cl
ATOM      7  C   LIG    1        2.807  -2.724  -2.483  0.00  0.00    +0.080 A 
ENDROOT
BRANCH   5   8
ATOM      8  C   LIG    1        4.873  -3.406  -3.613  0.00  0.00    +0.250 C 
ATOM      9  N   LIG    1        5.995  -3.586  -3.600  0.00  0.00    -0.390 NA
ENDBRANCH   5   8
BRANCH   1  10
ATOM     10  C   LIG    1        0.739  -2.027  -1.265  0.00  0.00    +0.080 C 
BRANCH  10  11
ATOM     11  C   LIG    1        0.718  -0.497  -1.257  0.00  0.00    +0.020 C 
BRANCH  11  13
ATOM     12  C   LIG    1       -0.019   1.526   0.010  0.00  0.00    -0.010 C 
ATOM     13  C   LIG    1        0.002  -0.004   0.002  0.00  0.00    -0.010 C 
ENDBRANCH  11  13
ENDBRANCH  10  11
ENDBRANCH   1  10
TORSDOF 4
ENDMDL
MODEL       24
REMARK  Name = ZINC000067802568
REMARK                            x       y       z     vdW  Elec       q    Type
REMARK                         _______ _______ _______ _____ _____    ______ ____
ROOT
ATOM      1  C   LIG    1        0.731  -0.503   1.223  0.00  0.00    -0.020 A 
ATOM      2  C   LIG    1        2.047  -0.150   1.435  0.00  0.00    +0.010 A 
ATOM      3  C   LIG    1        2.718  -0.607   2.556  0.00  0.00    +0.050 A 
ATOM      4  C   LIG    1        2.074  -1.421   3.470  0.00  0.00    +0.010 A 
ATOM      5  C   LIG    1        0.758  -1.783   3.271  0.00  0.00    -0.020 A 
ATOM      6  C   LIG    1        0.074  -1.320   2.145  0.00  0.00    -0.030 A 
ENDROOT
BRANCH   1   8
ATOM      7  C   LIG    1       -0.019   1.526   0.010  0.00  0.00    +0.040 C 
ATOM      8  C   LIG    1        0.002  -0.004   0.002  0.00  0.00    +0.010 C 
ATOM      9  C   LIG    1        0.718  -0.497  -1.257  0.00  0.00    +0.040 C 
ENDBRANCH   1   8
BRANCH   5  10
ATOM     10  C   LIG    1        0.059  -2.671   4.268  0.00  0.00    +0.010 C 
ATOM     11  C   LIG    1        0.050  -1.990   5.638  0.00  0.00    +0.040 C 
ATOM     12  C   LIG    1        0.798  -4.007   4.367  0.00  0.00    +0.040 C 
ENDBRANCH   5  10
BRANCH   6  13
ATOM     13  C   LIG    1       -1.293  -1.692   1.931  0.00  0.00    +0.260 C 
ATOM     14  N   LIG    1       -2.377  -1.986   1.761  0.00  0.00    -0.420 NA
ENDBRANCH   6  13
TORSDOF 3
ENDMDL
MODEL       25
REMARK  Name = ZINC000005412888
REMARK                            x       y       z     vdW  Elec       q    Type
REMARK                         _______ _______ _______ _____ _____    ______ ____
ROOT
ATOM      1  C   LIG    1       -0.137  -2.666  -2.243  0.00  0.00    +0.180 C 
ENDROOT
BRANCH   1   2
ATOM      2  C   LIG    1       -1.564  -2.183  -2.227  0.00  0.00    -0.080 A 
ATOM      3  C   LIG    1       -2.399  -2.529  -1.181  0.00  0.00    +0.010 A 
ATOM      4  C   LIG    1       -3.709  -2.086  -1.166  0.00  0.00    +0.000 A 
ATOM      5  C   LIG    1       -4.183  -1.297  -2.197  0.00  0.00    +0.010 A 
ATOM      6  C   LIG    1       -3.348  -0.949  -3.242  0.00  0.00    +0.000 A 
ATOM      7  C   LIG    1       -2.037  -1.389  -3.255  0.00  0.00    +0.030 A 
ENDBRANCH   1   2
BRANCH   1   8
ATOM      8  C   LIG    1        0.589  -2.153  -0.998  0.00  0.00    +0.030 C 
ATOM      9  C   LIG    1        2.038  -2.643  -1.014  0.00  0.00    +0.040 C 
BRANCH   8  12
ATOM     10  C   LIG    1       -0.018   1.503   0.010  0.00  0.00    +0.070 C 
ATOM     11  C   LIG    1        0.002  -0.004   0.002  0.00  0.00    -0.030 C 
ATOM     12  C   LIG    1        0.569  -0.646  -0.989  0.00  0.00    -0.050 C 
ENDBRANCH   8  12
ENDBRANCH   1   8
BRANCH   1  13
ATOM     13  C   LIG    1       -0.117  -4.138  -2.251  0.00  0.00    +0.210 C 
ATOM     14  N   LIG    1       -0.102  -5.274  -2.257  0.00  0.00    -0.420 NA
ENDBRANCH   1  13
TORSDOF 4
ENDMDL
MODEL       26
REMARK  Name = ZINC000005412882
REMARK                            x       y       z     vdW  Elec       q    Type
REMARK                         _______ _______ _______ _____ _____    ______ ____
ROOT
ATOM      1  C   LIG    1        2.038  -2.643  -1.014  0.00  0.00    +0.180 C 
ENDROOT
BRANCH   1   2
ATOM      2  C   LIG    1        2.059  -4.150  -1.022  0.00  0.00    -0.080 A 
ATOM      3  C   LIG    1        1.475  -4.855   0.013  0.00  0.00    +0.010 A 
ATOM      4  C   LIG    1        1.493  -6.237   0.006  0.00  0.00    +0.000 A 
ATOM      5  C   LIG    1        2.096  -6.914  -1.038  0.00  0.00    +0.010 A 
ATOM      6  C   LIG    1        2.679  -6.210  -2.074  0.00  0.00    +0.010 A 
ATOM      7  C   LIG    1        2.657  -4.827  -2.069  0.00  0.00    +0.030 A 
ENDBRANCH   1   2
BRANCH   1   8
ATOM      8  C   LIG    1        0.589  -2.153  -0.998  0.00  0.00    +0.030 C 
ATOM      9  C   LIG    1       -0.137  -2.666  -2.243  0.00  0.00    +0.040 C 
BRANCH   8  12
ATOM     10  C   LIG    1       -0.018   1.503   0.010  0.00  0.00    +0.070 C 
ATOM     11  C   LIG    1        0.002  -0.004   0.002  0.00  0.00    -0.040 C 
ATOM     12  C   LIG    1        0.569  -0.646  -0.989  0.00  0.00    -0.060 C 
ENDBRANCH   8  12
ENDBRANCH   1   8
BRANCH   1  13
ATOM     13  C   LIG    1        2.737  -2.150   0.184  0.00  0.00    +0.210 C 
ATOM     14  N   LIG    1        3.276  -1.769   1.108  0.00  0.00    -0.420 NA
ENDBRANCH   1  13
TORSDOF 4
ENDMDL
MODEL       27
REMARK  Name = ZINC000005829553
REMARK                            x       y       z     vdW  Elec       q    Type
REMARK                         _______ _______ _______ _____ _____    ______ ____
ROOT
ATOM      1  C   LIG    1        2.104  -0.717  -3.347  0.00  0.00    +0.020 C 
ATOM      2  C   LIG    1        3.591  -0.913  -3.311  0.00  0.00    -0.110 C 
ATOM      3  C   LIG    1        4.378  -0.674  -4.310  0.00  0.00    -0.040 C 
ATOM      4  C   LIG    1        3.916  -0.155  -5.640  0.00  0.00    +0.060 C 
ATOM      5  C   LIG    1        2.406  -0.357  -5.788  0.00  0.00    +0.030 C 
ATOM      6  C   LIG    1        4.206  -1.422  -2.033  0.00  0.00    +0.060 C 
ATOM      7  C   LIG    1        1.722   0.181  -4.526  0.00  0.00    -0.050 C 
ATOM      8  C   LIG    1        2.189   1.613  -4.259  0.00  0.00    +0.030 C 
ATOM      9  C   LIG    1        0.203   0.157  -4.714  0.00  0.00    +0.030 C 
ENDROOT
BRANCH   1  10
ATOM     10  C   LIG    1        1.654  -0.071  -2.062  0.00  0.00    +0.390 C 
ATOM     11  O   LIG    1        2.385   0.708  -1.486  0.00  0.00    -0.440 OA
BRANCH  10  14
ATOM     12  C   LIG    1        0.846   1.155   0.345  0.00  0.00    +0.090 C 
ATOM     13  C   LIG    1       -0.061   0.187  -0.370  0.00  0.00    +0.060 C 
ATOM     14  C   LIG    1        0.337  -0.384  -1.508  0.00  0.00    -0.130 C 
ENDBRANCH  10  14
ENDBRANCH   1  10
TORSDOF 2
ENDMDL
MODEL       28
REMARK  Name = ZINC000005829557
REMARK                            x       y       z     vdW  Elec       q    Type
REMARK                         _______ _______ _______ _____ _____    ______ ____
ROOT
ATOM      1  C   LIG    1        1.844  -0.651  -3.247  0.00  0.00    +0.020 C 
ATOM      2  C   LIG    1        0.825  -0.913  -4.317  0.00  0.00    -0.120 C 
ATOM      3  C   LIG    1        0.742  -0.241  -5.420  0.00  0.00    -0.030 C 
ATOM      4  C   LIG    1        1.659   0.889  -5.788  0.00  0.00    +0.060 C 
ATOM      5  C   LIG    1        2.392   1.397  -4.545  0.00  0.00    +0.030 C 
ATOM      6  C   LIG    1       -0.163  -2.029  -4.093  0.00  0.00    +0.060 C 
ATOM      7  C   LIG    1        2.989   0.194  -3.810  0.00  0.00    -0.050 C 
ATOM      8  C   LIG    1        3.816  -0.646  -4.786  0.00  0.00    +0.030 C 
ATOM      9  C   LIG    1        3.877   0.680  -2.663  0.00  0.00    +0.030 C 
ENDROOT
BRANCH   1  10
ATOM     10  C   LIG    1        1.192   0.088  -2.107  0.00  0.00    +0.390 C 
ATOM     11  O   LIG    1        1.176   1.301  -2.100  0.00  0.00    -0.440 OA
BRANCH  10  14
ATOM     12  C   LIG    1       -0.018   1.503   0.010  0.00  0.00    +0.090 C 
ATOM     13  C   LIG    1        0.002  -0.004   0.002  0.00  0.00    +0.060 C 
ATOM     14  C   LIG    1        0.579  -0.658  -1.008  0.00  0.00    -0.130 C 
ENDBRANCH  10  14
ENDBRANCH   1  10
TORSDOF 2
ENDMDL
MODEL       29
REMARK  Name = ZINC000038613534
REMARK                            x       y       z     vdW  Elec       q    Type
REMARK                         _______ _______ _______ _____ _____    ______ ____
ROOT
ATOM      1  C   LIG    1        1.260  -0.795  -3.647  0.00  0.00    +0.070 C 
ENDROOT
BRANCH   1   2
ATOM      2  C   LIG    1        0.959   0.179  -4.757  0.00  0.00    -0.090 C 
ATOM      3  C   LIG    1        1.661   1.279  -4.872  0.00  0.00    -0.040 C 
ATOM      4  C   LIG    1       -0.149  -0.112  -5.736  0.00  0.00    +0.090 C 
BRANCH   3   5
ATOM      5  C   LIG    1        2.668   1.644  -3.812  0.00  0.00    +0.140 C 
BRANCH   5   6
ATOM      6  S   LIG    1        4.339   1.578  -4.516  0.00  0.00    -0.250 S 
ATOM      7  H   LIG    1        5.119   1.921  -3.475  0.00  0.00    +0.080 HD
ENDBRANCH   5   6
ENDBRANCH   3   5
ENDBRANCH   1   2
BRANCH   1   8
ATOM      8  C   LIG    1        0.344  -0.508  -2.456  0.00  0.00    +0.050 C 
BRANCH   8  11
ATOM      9  C   LIG    1        0.878   0.435   0.148  0.00  0.00    +0.070 C 
ATOM     10  C   LIG    1        0.954  -1.040  -0.152  0.00  0.00    -0.130 C 
ATOM     11  C   LIG    1        0.644  -1.482  -1.346  0.00  0.00    -0.060 C 
ATOM     12  C   LIG    1        1.384  -2.006   0.922  0.00  0.00    +0.070 C 
ENDBRANCH   8  11
ENDBRANCH   1   8
TORSDOF 5
ENDMDL
MODEL       30
REMARK  Name = ZINC000005119380
REMARK                            x       y       z     vdW  Elec       q    Type
REMARK                         _______ _______ _______ _____ _____    ______ ____
ROOT
ATOM      1  C   LIG    1        2.687  -0.227  -2.208  0.00  0.00    +0.180 C 
ENDROOT
BRANCH   1   2
ATOM      2  C   LIG    1        3.365   0.140  -0.913  0.00  0.00    -0.080 A 
ATOM      3  C   LIG    1        3.350   1.449  -0.471  0.00  0.00    +0.010 A 
ATOM      4  C   LIG    1        3.972   1.785   0.717  0.00  0.00    +0.000 A 
ATOM      5  C   LIG    1        4.608   0.811   1.464  0.00  0.00    +0.010 A 
ATOM      6  C   LIG    1        4.623  -0.499   1.022  0.00  0.00    +0.010 A 
ATOM      7  C   LIG    1        3.998  -0.835  -0.164  0.00  0.00    +0.030 A 
ENDBRANCH   1   2
BRANCH   1   8
ATOM      8  C   LIG    1        1.200   0.122  -2.122  0.00  0.00    +0.040 C 
ATOM      9  C   LIG    1        0.512  -0.249  -3.437  0.00  0.00    +0.040 C 
BRANCH   8  12
ATOM     10  C   LIG    1       -0.018   1.503   0.010  0.00  0.00    +0.060 C 
ATOM     11  C   LIG    1        0.002  -0.004   0.002  0.00  0.00    -0.030 C 
ATOM     12  C   LIG    1        0.569  -0.646  -0.989  0.00  0.00    -0.050 C 
ENDBRANCH   8  12
ENDBRANCH   1   8
BRANCH   1  13
ATOM     13  C   LIG    1        3.304   0.524  -3.314  0.00  0.00    +0.210 C 
ATOM     14  N   LIG    1        3.780   1.103  -4.167  0.00  0.00    -0.420 NA
ENDBRANCH   1  13
TORSDOF 4
ENDMDL
MODEL       31
REMARK  Name = ZINC000095862990
REMARK                            x       y       z     vdW  Elec       q    Type
REMARK                         _______ _______ _______ _____ _____    ______ ____
ROOT
ATOM      1  C   LIG    1        0.091  -1.175   0.024  0.00  0.00    -0.190 C 
ATOM      2  C   LIG    1        0.002  -0.004   0.002  0.00  0.00    -0.180 C 
ATOM      3  C   LIG    1       -0.018   1.468   0.010  0.00  0.00    +0.160 C 
ATOM      4  C   LIG    1        1.418   1.997  -0.001  0.00  0.00    +0.020 C 
ATOM      5  C   LIG    1        2.109   1.570  -1.297  0.00  0.00    +0.000 C 
ATOM      6  C   LIG    1        3.610   1.846  -1.189  0.00  0.00    +0.020 C 
ATOM      7  C   LIG    1        4.357   1.028  -2.244  0.00  0.00    +0.150 C 
ATOM      8  C   LIG    1        4.244  -0.405  -1.925  0.00  0.00    -0.180 C 
ATOM      9  C   LIG    1        4.131  -1.536  -1.625  0.00  0.00    -0.190 C 
ATOM     10  C   LIG    1        3.804  -2.921  -1.246  0.00  0.00    +0.160 C 
ATOM     11  C   LIG    1        2.286  -3.105  -1.250  0.00  0.00    +0.020 C 
ATOM     12  C   LIG    1        1.752  -2.971   0.177  0.00  0.00    +0.020 C 
ATOM     13  C   LIG    1        0.260  -2.633   0.135  0.00  0.00    +0.160 C 
ENDROOT
TORSDOF 0
ENDMDL
MODEL       32
REMARK  Name = ZINC000100083049
REMARK                            x       y       z     vdW  Elec       q    Type
REMARK                         _______ _______ _______ _____ _____    ______ ____
ROOT
ATOM      1  C   LIG    1       -0.051   5.638  -0.230  0.00  0.00    +0.390 C 
ATOM      2  N   LIG    1        1.043   6.255   0.119  0.00  0.00    -0.490 NA
ENDROOT
BRANCH   1   7
ATOM      3  F   LIG    1        0.224   1.009  -3.357  0.00  0.00    -0.130 F 
ATOM      4  C   LIG    1        0.158   2.127  -2.601  0.00  0.00    +0.120 A 
ATOM      5  C   LIG    1        1.294   2.898  -2.408  0.00  0.00    -0.020 A 
ATOM      6  C   LIG    1        1.233   4.040  -1.638  0.00  0.00    +0.080 A 
ATOM      7  C   LIG    1        0.022   4.420  -1.052  0.00  0.00    -0.150 A 
ATOM      8  C   LIG    1       -1.121   3.638  -1.252  0.00  0.00    +0.090 A 
ATOM      9  C   LIG    1       -1.048   2.502  -2.028  0.00  0.00    -0.020 A 
ENDBRANCH   1   7
BRANCH   2  10
ATOM     10  C   LIG    1        2.239   5.591   0.098  0.00  0.00    +0.100 A 
ATOM     11  C   LIG    1        2.381   4.379   0.778  0.00  0.00    -0.030 A 
ATOM     12  C   LIG    1        3.590   3.715   0.752  0.00  0.00    +0.030 A 
ATOM     13  C   LIG    1        4.661   4.247   0.056  0.00  0.00    -0.010 A 
ATOM     14  C   LIG    1        4.528   5.448  -0.619  0.00  0.00    +0.030 A 
ATOM     15  C   LIG    1        3.323   6.119  -0.607  0.00  0.00    -0.010 A 
ENDBRANCH   2  10
TORSDOF 2
ENDMDL
MODEL       33
REMARK  Name = ZINC000018181226
REMARK                            x       y       z     vdW  Elec       q    Type
REMARK                         _______ _______ _______ _____ _____    ______ ____
ROOT
ATOM      1  C   LIG    1       -0.074   5.589   0.033  0.00  0.00    +0.310 C 
ATOM      2  N   LIG    1        1.046   6.256   0.021  0.00  0.00    -0.480 NA
ENDROOT
BRANCH   1   7
ATOM      3  F   LIG    1        0.002  -0.004   0.002  0.00  0.00    -0.140 F 
ATOM      4  C   LIG    1       -0.016   1.347   0.009  0.00  0.00    +0.120 A 
ATOM      5  C   LIG    1       -1.228   2.021   0.030  0.00  0.00    -0.020 A 
ATOM      6  C   LIG    1       -1.254   3.398   0.038  0.00  0.00    +0.080 A 
ATOM      7  C   LIG    1       -0.054   4.117   0.025  0.00  0.00    -0.090 A 
ATOM      8  C   LIG    1        1.165   3.432   0.004  0.00  0.00    +0.110 A 
ATOM      9  C   LIG    1        1.177   2.053   0.002  0.00  0.00    -0.020 A 
ENDBRANCH   1   7
BRANCH   2  10
ATOM     10  C   LIG    1        1.027   7.624   0.029  0.00  0.00    +0.080 A 
ATOM     11  C   LIG    1        0.147   8.319  -0.804  0.00  0.00    -0.030 A 
ATOM     12  C   LIG    1        0.134   9.698  -0.791  0.00  0.00    +0.020 A 
ATOM     13  C   LIG    1        0.990  10.393   0.044  0.00  0.00    +0.010 A 
ATOM     14  C   LIG    1        1.864   9.712   0.872  0.00  0.00    +0.020 A 
ATOM     15  C   LIG    1        1.884   8.332   0.874  0.00  0.00    +0.030 A 
ENDBRANCH   2  10
TORSDOF 2
ENDMDL
MODEL       34
REMARK  Name = ZINC000095884140
REMARK                            x       y       z     vdW  Elec       q    Type
REMARK                         _______ _______ _______ _____ _____    ______ ____
ROOT
ATOM      1  C   LIG    1        1.715  -1.106   1.417  0.00  0.00    +0.020 C 
ENDROOT
BRANCH   1   2
ATOM      2  C   LIG    1        1.317  -0.740  -0.015  0.00  0.00    +0.050 C 
BRANCH   2   4
ATOM      3  C   LIG    1       -0.016   1.306   0.009  0.00  0.00    +0.000 C 
ATOM      4  C   LIG    1        0.002  -0.004   0.002  0.00  0.00    -0.130 C 
ATOM      5  C   LIG    1       -1.293  -0.775   0.010  0.00  0.00    +0.080 C 
ENDBRANCH   2   4
ENDBRANCH   1   2
BRANCH   1   6
ATOM      6  C   LIG    1        3.050  -1.853   1.400  0.00  0.00    +0.010 C 
BRANCH   6   7
ATOM      7  C   LIG    1        3.447  -2.219   2.831  0.00  0.00    -0.070 C 
ATOM      8  C   LIG    1        3.587  -0.944   3.664  0.00  0.00    +0.020 C 
ATOM      9  C   LIG    1        4.782  -2.966   2.815  0.00  0.00    +0.010 C 
ATOM     10  C   LIG    1        2.370  -3.115   3.447  0.00  0.00    +0.020 C 
ENDBRANCH   6   7
ENDBRANCH   1   6
TORSDOF 4
ENDMDL
MODEL       35
REMARK  Name = ZINC000199051624
REMARK                            x       y       z     vdW  Elec       q    Type
REMARK                         _______ _______ _______ _____ _____    ______ ____
ROOT
ATOM      1  C   LIG    1        1.715  -1.106   1.417  0.00  0.00    +0.020 C 
ENDROOT
BRANCH   1   2
ATOM      2  C   LIG    1        1.317  -0.740  -0.015  0.00  0.00    +0.050 C 
BRANCH   2   4
ATOM      3  C   LIG    1       -0.016   1.306   0.009  0.00  0.00    +0.000 C 
ATOM      4  C   LIG    1        0.002  -0.004   0.002  0.00  0.00    -0.130 C 
ATOM      5  C   LIG    1       -1.293  -0.775   0.010  0.00  0.00    +0.080 C 
ENDBRANCH   2   4
ENDBRANCH   1   2
BRANCH   1   6
ATOM      6  C   LIG    1        3.050  -1.853   1.400  0.00  0.00    -0.270 C 
BRANCH   6   7
ATOM      7 SI   LIG    1        3.534  -2.299   3.143  0.00  0.00    +1.000 Si
ATOM      8  C   LIG    1        3.704  -0.746   4.157  0.00  0.00    -0.240 C 
ATOM      9  C   LIG    1        5.160  -3.209   3.123  0.00  0.00    -0.240 C 
ATOM     10  C   LIG    1        2.222  -3.389   3.892  0.00  0.00    -0.240 C 
ENDBRANCH   6   7
ENDBRANCH   1   6
TORSDOF 4
ENDMDL
MODEL       36
REMARK  Name = ZINC000002507859
REMARK                            x       y       z     vdW  Elec       q    Type
REMARK                         _______ _______ _______ _____ _____    ______ ____
ROOT
ATOM      1  C   LIG    1        1.657  -1.214   1.397  0.00  0.00    -0.010 C 
ATOM      2  C   LIG    1        0.697  -2.335   1.803  0.00  0.00    +0.010 C 
ATOM      3  C   LIG    1        1.037  -2.809   3.217  0.00  0.00    +0.000 C 
ATOM      4  C   LIG    1        2.474  -3.333   3.248  0.00  0.00    +0.000 C 
ATOM      5  C   LIG    1        3.434  -2.212   2.842  0.00  0.00    +0.000 C 
ATOM      6  C   LIG    1        3.094  -1.738   1.427  0.00  0.00    +0.000 C 
ENDROOT
BRANCH   1   7
ATOM      7  C   LIG    1        1.317  -0.740  -0.018  0.00  0.00    +0.060 C 
BRANCH   7   9
ATOM      8  C   LIG    1       -1.100  -0.812  -0.355  0.00  0.00    +0.000 C 
ATOM      9  C   LIG    1       -0.050  -0.105  -0.020  0.00  0.00    -0.120 C 
ATOM     10  C   LIG    1       -0.208   1.344   0.363  0.00  0.00    +0.070 C 
ENDBRANCH   7   9
ENDBRANCH   1   7
TORSDOF 2
ENDMDL
MODEL       37
REMARK  Name = ZINC000060256202
REMARK                            x       y       z     vdW  Elec       q    Type
REMARK                         _______ _______ _______ _____ _____    ______ ____
ROOT
ATOM      1  C   LIG    1       -3.382  -2.281  -2.852  0.00  0.00    +0.060 C 
ENDROOT
BRANCH   1   2
ATOM      2  C   LIG    1       -4.677  -3.052  -2.844  0.00  0.00    -0.080 A 
ATOM      3  C   LIG    1       -4.660  -4.430  -2.741  0.00  0.00    +0.000 A 
ATOM      4  C   LIG    1       -5.847  -5.138  -2.734  0.00  0.00    +0.000 A 
ATOM      5  C   LIG    1       -7.052  -4.467  -2.828  0.00  0.00    -0.010 A 
ATOM      6  C   LIG    1       -7.069  -3.088  -2.930  0.00  0.00    +0.000 A 
ATOM      7  C   LIG    1       -5.882  -2.381  -2.933  0.00  0.00    +0.000 A 
ENDBRANCH   1   2
BRANCH   1   8
ATOM      8  C   LIG    1       -2.995  -1.919  -1.417  0.00  0.00    +0.010 C 
BRANCH   8   9
ATOM      9  C   LIG    1       -1.680  -1.137  -1.425  0.00  0.00    +0.010 C 
BRANCH   9  10
ATOM     10  C   LIG    1       -1.293  -0.775   0.010  0.00  0.00    +0.050 C 
BRANCH  10  12
ATOM     11  C   LIG    1       -0.016   1.306   0.009  0.00  0.00    +0.000 C 
ATOM     12  C   LIG    1        0.002  -0.004   0.002  0.00  0.00    -0.130 C 
ATOM     13  C   LIG    1        1.317  -0.740  -0.015  0.00  0.00    +0.070 C 
ENDBRANCH  10  12
ENDBRANCH   9  10
ENDBRANCH   8   9
ENDBRANCH   1   8
TORSDOF 5
ENDMDL
MODEL       38
REMARK  Name = ZINC000001683654
REMARK                            x       y       z     vdW  Elec       q    Type
REMARK                         _______ _______ _______ _____ _____    ______ ____
ROOT
ATOM      1  C   LIG    1        3.030  -1.842   1.400  0.00  0.00    +0.180 A 
ATOM      2  C   LIG    1        3.052  -3.240   1.281  0.00  0.00    -0.110 A 
ATOM      3  C   LIG    1        1.875  -3.998   1.173  0.00  0.00    +0.040 A 
ATOM      4  C   LIG    1        1.957  -5.353   1.060  0.00  0.00    +0.010 A 
ATOM      5  C   LIG    1        3.191  -6.000   1.048  0.00  0.00    +0.030 A 
ATOM      6  C   LIG    1        4.354  -5.298   1.151  0.00  0.00    +0.020 A 
ATOM      7  C   LIG    1        4.308  -3.901   1.269  0.00  0.00    -0.020 A 
ATOM      8  C   LIG    1        5.472  -3.119   1.378  0.00  0.00    -0.020 A 
ATOM      9  C   LIG    1        5.343  -1.768   1.489  0.00  0.00    +0.230 A 
ATOM     10  N   LIG    1        4.157  -1.175   1.492  0.00  0.00    -0.490 NA
ENDROOT
BRANCH   1  11
ATOM     11  C   LIG    1        1.715  -1.106   1.417  0.00  0.00    +0.100 C 
BRANCH  11  12
ATOM     12  C   LIG    1        1.317  -0.740  -0.015  0.00  0.00    +0.060 C 
BRANCH  12  14
ATOM     13  C   LIG    1       -0.016   1.306   0.009  0.00  0.00    +0.010 C 
ATOM     14  C   LIG    1        0.002  -0.004   0.002  0.00  0.00    -0.130 C 
ATOM     15  C   LIG    1       -1.293  -0.775   0.010  0.00  0.00    +0.070 C 
ENDBRANCH  12  14
ENDBRANCH  11  12
ENDBRANCH   1  11
TORSDOF 3
ENDMDL
MODEL       39
REMARK  Name = ZINC000032158113
REMARK                            x       y       z     vdW  Elec       q    Type
REMARK                         _______ _______ _______ _____ _____    ______ ____
ROOT
ATOM      1  C   LIG    1       -0.017   1.428   0.010  0.00  0.00    -0.030 A 
ATOM      2  C   LIG    1       -1.234   2.113   0.031  0.00  0.00    +0.060 A 
ATOM      3  C   LIG    1       -1.245   3.492   0.038  0.00  0.00    +0.010 A 
ATOM      4  C   LIG    1       -0.055   4.197   0.025  0.00  0.00    -0.040 A 
ATOM      5  C   LIG    1        1.154   3.525   0.004  0.00  0.00    +0.010 A 
ATOM      6  C   LIG    1        1.180   2.146   0.002  0.00  0.00    +0.060 A 
ENDROOT
BRANCH   4   7
ATOM      7  C   LIG    1       -0.075   5.704   0.033  0.00  0.00    +0.030 C 
ATOM      8  C   LIG    1        0.657   6.217   1.274  0.00  0.00    +0.020 C 
ATOM      9  C   LIG    1        0.636   7.747   1.282  0.00  0.00    +0.000 C 
ATOM     10  C   LIG    1        1.332   8.273   0.026  0.00  0.00    +0.000 C 
ATOM     11  C   LIG    1        0.600   7.760  -1.216  0.00  0.00    +0.000 C 
ATOM     12  C   LIG    1        0.620   6.230  -1.224  0.00  0.00    +0.020 C 
ENDBRANCH   4   7
BRANCH   1  14
ATOM     13  N   LIG    1        0.018  -1.140  -0.004  0.00  0.00    -0.420 NA
ATOM     14  C   LIG    1        0.002  -0.004   0.002  0.00  0.00    +0.250 C 
ENDBRANCH   1  14
TORSDOF 2
ENDMDL
MODEL       40
REMARK  Name = ZINC000079712216
REMARK                            x       y       z     vdW  Elec       q    Type
REMARK                         _______ _______ _______ _____ _____    ______ ____
ROOT
ATOM      1  C   LIG    1       -3.299  -0.406  -1.150  0.00  0.00    +0.010 C 
ENDROOT
BRANCH   1   2
ATOM      2  C   LIG    1       -2.438   0.061   0.026  0.00  0.00    +0.040 C 
BRANCH   2   5
ATOM      3  C   LIG    1       -0.018   1.503   0.010  0.00  0.00    +0.060 C 
ATOM      4  C   LIG    1        0.002  -0.004   0.002  0.00  0.00    -0.060 C 
ATOM      5  C   LIG    1       -1.123  -0.674   0.009  0.00  0.00    -0.050 C 
ENDBRANCH   2   5
ENDBRANCH   1   2
BRANCH   1   6
ATOM      6  C   LIG    1       -4.634   0.341  -1.134  0.00  0.00    +0.000 C 
BRANCH   6   7
ATOM      7  C   LIG    1       -5.494  -0.126  -2.309  0.00  0.00    +0.000 C 
BRANCH   7   8
ATOM      8  C   LIG    1       -6.830   0.621  -2.293  0.00  0.00    -0.010 C 
ATOM      9  C   LIG    1       -7.690   0.155  -3.469  0.00  0.00    +0.000 C 
ENDBRANCH   7   8
ENDBRANCH   6   7
ENDBRANCH   1   6
TORSDOF 5
ENDMDL
MODEL       41
REMARK  Name = ZINC000095902278
REMARK                            x       y       z     vdW  Elec       q    Type
REMARK                         _______ _______ _______ _____ _____    ______ ____
ROOT
ATOM      1  C   LIG    1       -1.674  -1.131  -1.403  0.00  0.00    -0.070 A 
ATOM      2  C   LIG    1       -2.456  -0.267  -2.147  0.00  0.00    +0.000 A 
ATOM      3  C   LIG    1       -2.806  -0.593  -3.444  0.00  0.00    +0.010 A 
ATOM      4  C   LIG    1       -2.374  -1.784  -3.997  0.00  0.00    +0.000 A 
ATOM      5  C   LIG    1       -1.592  -2.648  -3.254  0.00  0.00    -0.070 A 
ATOM      6  C   LIG    1       -1.238  -2.320  -1.959  0.00  0.00    +0.010 A 
ENDROOT
BRANCH   5   7
ATOM      7  C   LIG    1       -1.121  -3.946  -3.858  0.00  0.00    +0.020 C 
ATOM      8  C   LIG    1       -0.275  -3.655  -5.098  0.00  0.00    +0.040 C 
ATOM      9  C   LIG    1       -2.333  -4.793  -4.254  0.00  0.00    +0.040 C 
ENDBRANCH   5   7
BRANCH   1  10
ATOM     10  C   LIG    1       -1.293  -0.775   0.010  0.00  0.00    +0.110 C 
BRANCH  10  12
ATOM     11  C   LIG    1       -0.016   1.306   0.009  0.00  0.00    +0.010 C 
ATOM     12  C   LIG    1        0.002  -0.004   0.002  0.00  0.00    -0.120 C 
ATOM     13  C   LIG    1        1.317  -0.740  -0.015  0.00  0.00    +0.070 C 
ENDBRANCH  10  12
ENDBRANCH   1  10
TORSDOF 3
ENDMDL
MODEL       42
REMARK  Name = ZINC000043502475
REMARK                            x       y       z     vdW  Elec       q    Type
REMARK                         _______ _______ _______ _____ _____    ______ ____
ROOT
ATOM      1  C   LIG    1       -1.508  -1.029  -1.492  0.00  0.00    -0.040 A 
ATOM      2  C   LIG    1       -2.462  -0.270  -2.143  0.00  0.00    -0.030 A 
ATOM      3  C   LIG    1       -2.984  -0.697  -3.350  0.00  0.00    +0.040 A 
ATOM      4  C   LIG    1       -2.553  -1.885  -3.908  0.00  0.00    -0.090 A 
ATOM      5  C   LIG    1       -1.596  -2.650  -3.256  0.00  0.00    +0.140 A 
ATOM      6  C   LIG    1       -1.070  -2.216  -2.049  0.00  0.00    -0.020 A 
ENDROOT
BRANCH   1   7
ATOM      7  C   LIG    1       -0.942  -0.560  -0.177  0.00  0.00    +0.110 C 
BRANCH   7   9
ATOM      8  C   LIG    1        0.150   1.601  -0.486  0.00  0.00    +0.010 C 
ATOM      9  C   LIG    1        0.271   0.298  -0.430  0.00  0.00    -0.120 C 
ATOM     10  C   LIG    1        1.622  -0.342  -0.619  0.00  0.00    +0.070 C 
ENDBRANCH   7   9
ENDBRANCH   1   7
BRANCH   5  11
ATOM     11  O   LIG    1       -1.171  -3.819  -3.804  0.00  0.00    -0.310 OA
BRANCH  11  12
ATOM     12  C   LIG    1       -1.660  -4.141  -5.107  0.00  0.00    +0.150 C 
ATOM     13  C   LIG    1       -3.021  -4.829  -4.985  0.00  0.00    +0.020 C 
ATOM     14  C   LIG    1       -0.674  -5.081  -5.804  0.00  0.00    +0.070 C 
ENDBRANCH  11  12
ENDBRANCH   5  11
TORSDOF 4
ENDMDL
MODEL       43
REMARK  Name = ZINC000095611670
REMARK                            x       y       z     vdW  Elec       q    Type
REMARK                         _______ _______ _______ _____ _____    ______ ____
ROOT
ATOM      1  C   LIG    1       -1.128  -0.806  -0.670  0.00  0.00    +0.030 C 
ATOM      2  C   LIG    1       -1.584  -2.219  -0.196  0.00  0.00    +0.000 C 
ATOM      3  C   LIG    1       -0.274  -3.064  -0.172  0.00  0.00    +0.000 C 
ATOM      4  C   LIG    1        0.097  -3.252  -1.660  0.00  0.00    -0.000 C 
ATOM      5  C   LIG    1       -1.024  -2.503  -2.444  0.00  0.00    +0.010 C 
ATOM      6  C   LIG    1       -2.274  -2.754  -1.500  0.00  0.00    +0.010 C 
ATOM      7  C   LIG    1       -0.778  -0.986  -2.165  0.00  0.00    -0.060 C 
ATOM      8  C   LIG    1        0.694  -0.634  -2.390  0.00  0.00    +0.030 C 
ATOM      9  C   LIG    1       -1.675  -0.127  -3.058  0.00  0.00    +0.030 C 
ENDROOT
BRANCH   1  11
ATOM     10  C   LIG    1       -0.009   0.635   0.953  0.00  0.00    -0.010 C 
ATOM     11  C   LIG    1        0.085  -0.358   0.104  0.00  0.00    -0.100 C 
ATOM     12  C   LIG    1        1.407  -1.052  -0.099  0.00  0.00    +0.070 C 
ENDBRANCH   1  11
TORSDOF 1
ENDMDL
MODEL       44
REMARK  Name = ZINC000012654329
REMARK                            x       y       z     vdW  Elec       q    Type
REMARK                         _______ _______ _______ _____ _____    ______ ____
ROOT
ATOM      1  C   LIG    1        1.317  -0.740  -0.015  0.00  0.00    +0.000 C 
ATOM      2  C   LIG    1        1.422  -1.629   1.228  0.00  0.00    +0.020 C 
ATOM      3  C   LIG    1        2.726  -2.429   1.162  0.00  0.00    -0.010 C 
ATOM      4  C   LIG    1        2.752  -3.240  -0.137  0.00  0.00    +0.190 C 
ATOM      5  O   LIG    1        2.620  -2.356  -1.252  0.00  0.00    -0.370 OA
ATOM      6  C   LIG    1        1.594  -4.240  -0.137  0.00  0.00    +0.000 C 
ATOM      7  C   LIG    1        1.398  -1.615  -1.268  0.00  0.00    +0.170 C 
ENDROOT
BRANCH   1   9
ATOM      8  C   LIG    1       -0.016   1.306   0.009  0.00  0.00    +0.010 C 
ATOM      9  C   LIG    1        0.002  -0.004   0.002  0.00  0.00    -0.120 C 
ATOM     10  C   LIG    1       -1.293  -0.775   0.010  0.00  0.00    +0.070 C 
ENDBRANCH   1   9
BRANCH   7  11
ATOM     11  C   LIG    1        1.356  -0.729  -2.515  0.00  0.00    +0.040 C 
BRANCH  11  12
ATOM     12  C   LIG    1        1.311  -1.610  -3.765  0.00  0.00    -0.020 C 
ATOM     13  C   LIG    1        1.394  -0.729  -5.013  0.00  0.00    +0.000 C 
ATOM     14  C   LIG    1        0.002  -2.401  -3.785  0.00  0.00    +0.000 C 
ENDBRANCH  11  12
ENDBRANCH   7  11
TORSDOF 3
ENDMDL
MODEL       45
REMARK  Name = ZINC000091365480
REMARK                            x       y       z     vdW  Elec       q    Type
REMARK                         _______ _______ _______ _____ _____    ______ ____
ROOT
ATOM      1  C   LIG    1        1.317  -0.740  -0.015  0.00  0.00    +0.020 C 
ENDROOT
BRANCH   1   3
ATOM      2  C   LIG    1       -0.016   1.306   0.009  0.00  0.00    +0.000 C 
ATOM      3  C   LIG    1        0.002  -0.004   0.002  0.00  0.00    -0.110 C 
ATOM      4  C   LIG    1       -1.293  -0.775   0.010  0.00  0.00    +0.070 C 
ENDBRANCH   1   3
BRANCH   1   5
ATOM      5  C   LIG    1        1.398  -1.611  -1.269  0.00  0.00    +0.010 C 
ATOM      6  C   LIG    1        1.419  -0.718  -2.511  0.00  0.00    +0.010 C 
ENDBRANCH   1   5
BRANCH   1   7
ATOM      7  C   LIG    1        1.422  -1.625   1.229  0.00  0.00    +0.010 C 
BRANCH   7   8
ATOM      8  C   LIG    1        2.806  -2.275   1.277  0.00  0.00    +0.000 C 
BRANCH   8   9
ATOM      9  C   LIG    1        2.911  -3.160   2.520  0.00  0.00    -0.010 C 
ATOM     10  C   LIG    1        4.295  -3.811   2.568  0.00  0.00    +0.000 C 
ENDBRANCH   8   9
ENDBRANCH   7   8
ENDBRANCH   1   7
TORSDOF 5
ENDMDL
MODEL       46
REMARK  Name = ZINC000012654325
REMARK                            x       y       z     vdW  Elec       q    Type
REMARK                         _______ _______ _______ _____ _____    ______ ____
ROOT
ATOM      1  C   LIG    1        1.317  -0.740  -0.015  0.00  0.00    +0.000 C 
ATOM      2  C   LIG    1        1.422  -1.629   1.228  0.00  0.00    +0.020 C 
ATOM      3  C   LIG    1        2.726  -2.429   1.162  0.00  0.00    -0.010 C 
ATOM      4  C   LIG    1        2.752  -3.240  -0.137  0.00  0.00    +0.150 C 
ATOM      5  O   LIG    1        2.620  -2.356  -1.252  0.00  0.00    -0.370 OA
ATOM      6  C   LIG    1        4.078  -3.996  -0.239  0.00  0.00    +0.040 C 
ATOM      7  C   LIG    1        1.398  -1.615  -1.268  0.00  0.00    +0.160 C 
ENDROOT
BRANCH   1   9
ATOM      8  C   LIG    1       -0.016   1.306   0.009  0.00  0.00    +0.010 C 
ATOM      9  C   LIG    1        0.002  -0.004   0.002  0.00  0.00    -0.120 C 
ATOM     10  C   LIG    1       -1.293  -0.775   0.010  0.00  0.00    +0.070 C 
ENDBRANCH   1   9
BRANCH   7  11
ATOM     11  C   LIG    1        1.356  -0.729  -2.515  0.00  0.00    +0.040 C 
BRANCH  11  12
ATOM     12  C   LIG    1        1.311  -1.610  -3.765  0.00  0.00    -0.020 C 
ATOM     13  C   LIG    1        1.394  -0.729  -5.013  0.00  0.00    +0.000 C 
ATOM     14  C   LIG    1        0.002  -2.401  -3.785  0.00  0.00    +0.000 C 
ENDBRANCH  11  12
ENDBRANCH   7  11
TORSDOF 3
ENDMDL
MODEL       47
REMARK  Name = ZINC000004024424
REMARK                            x       y       z     vdW  Elec       q    Type
REMARK                         _______ _______ _______ _____ _____    ______ ____
ROOT
ATOM      1  C   LIG    1        0.912  -0.930   0.293  0.00  0.00    +0.010 C 
ATOM      2  C   LIG    1        0.914  -1.982   1.407  0.00  0.00    +0.020 C 
ATOM      3  C   LIG    1        2.285  -2.662   1.450  0.00  0.00    -0.010 C 
ATOM      4  C   LIG    1        2.589  -3.269   0.077  0.00  0.00    +0.140 C 
ATOM      5  O   LIG    1        2.542  -2.243  -0.917  0.00  0.00    -0.360 OA
ATOM      6  C   LIG    1        3.983  -3.899   0.095  0.00  0.00    +0.040 C 
ATOM      7  C   LIG    1        1.270  -1.603  -1.036  0.00  0.00    +0.200 C 
ENDROOT
BRANCH   1   9
ATOM      8  C   LIG    1       -1.483  -0.884   0.763  0.00  0.00    +0.000 C 
ATOM      9  C   LIG    1       -0.456  -0.307   0.190  0.00  0.00    -0.120 C 
ATOM     10  C   LIG    1       -0.643   0.979  -0.573  0.00  0.00    +0.070 C 
ENDBRANCH   1   9
BRANCH   7  11
ATOM     11  C   LIG    1        0.204  -2.645  -1.381  0.00  0.00    +0.000 C 
BRANCH  11  12
ATOM     12  C   LIG    1        0.481  -3.216  -2.773  0.00  0.00    -0.020 C 
ATOM     13  C   LIG    1       -0.655  -4.159  -3.172  0.00  0.00    +0.000 C 
ATOM     14  C   LIG    1        1.802  -3.987  -2.754  0.00  0.00    +0.010 C 
ENDBRANCH  11  12
ENDBRANCH   7  11
TORSDOF 3
ENDMDL
MODEL       48
REMARK  Name = ZINC000004024423
REMARK                            x       y       z     vdW  Elec       q    Type
REMARK                         _______ _______ _______ _____ _____    ______ ____
ROOT
ATOM      1  C   LIG    1        0.973  -0.862   0.037  0.00  0.00    +0.000 C 
ATOM      2  C   LIG    1        0.821  -1.790   1.246  0.00  0.00    +0.020 C 
ATOM      3  C   LIG    1       -0.284  -2.811   0.956  0.00  0.00    +0.000 C 
ATOM      4  C   LIG    1        0.062  -3.576  -0.325  0.00  0.00    +0.140 C 
ATOM      5  O   LIG    1        0.220  -2.651  -1.403  0.00  0.00    -0.370 OA
ATOM      6  C   LIG    1       -1.065  -4.556  -0.654  0.00  0.00    +0.040 C 
ATOM      7  C   LIG    1        1.271  -1.700  -1.209  0.00  0.00    +0.160 C 
ENDROOT
BRANCH   1   9
ATOM      8  C   LIG    1       -1.128  -0.431  -1.131  0.00  0.00    +0.030 C 
ATOM      9  C   LIG    1       -0.305  -0.090  -0.170  0.00  0.00    -0.130 C 
ATOM     10  C   LIG    1       -0.637   1.073   0.729  0.00  0.00    +0.060 C 
ENDBRANCH   1   9
BRANCH   7  11
ATOM     11  C   LIG    1        1.364  -0.786  -2.432  0.00  0.00    +0.040 C 
BRANCH  11  12
ATOM     12  C   LIG    1        1.731  -1.617  -3.663  0.00  0.00    -0.020 C 
ATOM     13  C   LIG    1        3.136  -2.196  -3.488  0.00  0.00    +0.000 C 
ATOM     14  C   LIG    1        1.698  -0.727  -4.907  0.00  0.00    +0.000 C 
ENDBRANCH  11  12
ENDBRANCH   7  11
TORSDOF 3
ENDMDL
MODEL       49
REMARK  Name = ZINC000038363464
REMARK                            x       y       z     vdW  Elec       q    Type
REMARK                         _______ _______ _______ _____ _____    ______ ____
ROOT
ATOM      1  C   LIG    1        1.522  -0.006   1.221  0.00  0.00    -0.090 A 
ATOM      2  C   LIG    1        1.540  -0.606  -0.039  0.00  0.00    +0.060 A 
ATOM      3  C   LIG    1        2.600  -1.409  -0.403  0.00  0.00    -0.020 A 
ATOM      4  C   LIG    1        3.648  -1.622   0.482  0.00  0.00    +0.140 A 
ATOM      5  C   LIG    1        3.634  -1.027   1.736  0.00  0.00    -0.070 A 
ATOM      6  C   LIG    1        2.580  -0.218   2.106  0.00  0.00    +0.050 A 
ENDROOT
BRANCH   1   8
ATOM      7  C   LIG    1        0.582   2.149   1.830  0.00  0.00    +0.020 C 
ATOM      8  C   LIG    1        0.387   0.855   1.615  0.00  0.00    -0.090 C 
ATOM      9  C   LIG    1       -0.990   0.263   1.772  0.00  0.00    +0.080 C 
ENDBRANCH   1   8
BRANCH   4  10
ATOM     10  O   LIG    1        4.691  -2.414   0.120  0.00  0.00    -0.310 OA
BRANCH  10  11
ATOM     11  C   LIG    1        5.781  -2.512   1.039  0.00  0.00    +0.110 C 
ATOM     12  C   LIG    1        6.331  -1.114   1.329  0.00  0.00    +0.020 C 
ATOM     13  C   LIG    1        6.885  -3.379   0.430  0.00  0.00    +0.080 C 
ATOM     14  C   LIG    1        5.293  -3.149   2.342  0.00  0.00    +0.020 C 
ENDBRANCH  10  11
ENDBRANCH   4  10
TORSDOF 3
ENDMDL
MODEL       50
REMARK  Name = ZINC000001669143
REMARK                            x       y       z     vdW  Elec       q    Type
REMARK                         _______ _______ _______ _____ _____    ______ ____
ROOT
ATOM      1  C   LIG    1       -1.267  -0.760   0.010  0.00  0.00    -0.070 A 
ATOM      2  C   LIG    1       -1.698  -1.392   1.195  0.00  0.00    +0.120 A 
ATOM      3  C   LIG    1       -2.866  -2.094   1.224  0.00  0.00    +0.000 A 
ATOM      4  C   LIG    1       -3.654  -2.195   0.065  0.00  0.00    -0.040 A 
ATOM      5  C   LIG    1       -4.862  -2.913   0.071  0.00  0.00    +0.020 A 
ATOM      6  C   LIG    1       -5.606  -2.992  -1.066  0.00  0.00    +0.020 A 
ATOM      7  C   LIG    1       -5.188  -2.371  -2.242  0.00  0.00    +0.010 A 
ATOM      8  C   LIG    1       -4.024  -1.667  -2.287  0.00  0.00    +0.030 A 
ATOM      9  C   LIG    1       -3.229  -1.562  -1.131  0.00  0.00    -0.060 A 
ATOM     10  C   LIG    1       -2.027  -0.838  -1.143  0.00  0.00    +0.050 A 
ENDROOT
BRANCH   1  12
ATOM     11  C   LIG    1       -0.016   1.322   0.009  0.00  0.00    +0.030 C 
ATOM     12  C   LIG    1        0.002  -0.004   0.002  0.00  0.00    -0.080 C 
ATOM     13  C   LIG    1        1.317  -0.740  -0.015  0.00  0.00    +0.090 C 
ENDBRANCH   1  12
BRANCH   2  14
ATOM     14  O   LIG    1       -0.941  -1.299   2.319  0.00  0.00    -0.490 OA
ATOM     15  H   LIG    1       -1.157  -0.540   2.877  0.00  0.00    +0.390 HD
ENDBRANCH   2  14
TORSDOF 2
ENDMDL
MODEL       51
REMARK  Name = ZINC000095611671
REMARK                            x       y       z     vdW  Elec       q    Type
REMARK                         _______ _______ _______ _____ _____    ______ ____
ROOT
ATOM      1  C   LIG    1       -1.244  -0.753  -0.058  0.00  0.00    +0.030 C 
ATOM      2  C   LIG    1       -1.145  -1.886  -1.124  0.00  0.00    +0.000 C 
ATOM      3  C   LIG    1       -2.612  -2.385  -1.301  0.00  0.00    +0.000 C 
ATOM      4  C   LIG    1       -2.937  -3.119   0.020  0.00  0.00    +0.000 C 
ATOM      5  C   LIG    1       -1.636  -2.994   0.871  0.00  0.00    +0.010 C 
ATOM      6  C   LIG    1       -0.525  -3.042  -0.262  0.00  0.00    +0.020 C 
ATOM      7  C   LIG    1       -1.550  -1.486   1.268  0.00  0.00    -0.050 C 
ATOM      8  C   LIG    1       -2.891  -1.004   1.825  0.00  0.00    +0.030 C 
ATOM      9  C   LIG    1       -0.436  -1.267   2.294  0.00  0.00    +0.030 C 
ENDROOT
BRANCH   1  11
ATOM     10  C   LIG    1        1.138  -0.497  -0.526  0.00  0.00    -0.020 C 
ATOM     11  C   LIG    1        0.063  -0.010   0.042  0.00  0.00    -0.110 C 
ATOM     12  C   LIG    1        0.133   1.294   0.795  0.00  0.00    +0.060 C 
ENDBRANCH   1  11
TORSDOF 1
ENDMDL
MODEL       52
REMARK  Name = ZINC000088466437
REMARK                            x       y       z     vdW  Elec       q    Type
REMARK                         _______ _______ _______ _____ _____    ______ ____
ROOT
ATOM      1  C   LIG    1       -2.827  -4.123   0.007  0.00  0.00    +0.010 C 
ENDROOT
BRANCH   1   2
ATOM      2  C   LIG    1       -2.848  -2.593   0.015  0.00  0.00    +0.000 C 
BRANCH   2   3
ATOM      3  C   LIG    1       -1.413  -2.063   0.004  0.00  0.00    +0.010 C 
BRANCH   3   4
ATOM      4  C   LIG    1       -1.433  -0.534   0.013  0.00  0.00    +0.050 C 
BRANCH   4   5
ATOM      5  C   LIG    1        0.002  -0.004   0.002  0.00  0.00    +0.090 C 
BRANCH   5   6
ATOM      6  S   LIG    1       -0.022   1.810   0.012  0.00  0.00    -0.250 S 
ATOM      7  H   LIG    1        1.284   2.130   0.001  0.00  0.00    +0.090 HD
ENDBRANCH   5   6
ENDBRANCH   4   5
ENDBRANCH   3   4
ENDBRANCH   2   3
ENDBRANCH   1   2
BRANCH   1   8
ATOM      8  C   LIG    1       -4.263  -4.652   0.018  0.00  0.00    +0.070 C 
BRANCH   8   9
ATOM      9  C   LIG    1       -4.242  -6.159   0.009  0.00  0.00    -0.110 C 
ATOM     10  C   LIG    1       -4.322  -6.922   1.093  0.00  0.00    -0.030 C 
ATOM     11  C   LIG    1       -4.264  -8.358   0.623  0.00  0.00    +0.110 C 
ATOM     12  C   LIG    1       -4.141  -8.274  -0.882  0.00  0.00    -0.030 C 
ATOM     13  C   LIG    1       -4.138  -6.985  -1.196  0.00  0.00    -0.020 C 
ENDBRANCH   8   9
ENDBRANCH   1   8
TORSDOF 7
ENDMDL
MODEL       53
REMARK  Name = ZINC000096543333
REMARK                            x       y       z     vdW  Elec       q    Type
REMARK                         _______ _______ _______ _____ _____    ______ ____
ROOT
ATOM      1  C   LIG    1       -1.680  -1.137  -1.425  0.00  0.00    +0.020 C 
ENDROOT
BRANCH   1   2
ATOM      2  C   LIG    1       -1.293  -0.775   0.010  0.00  0.00    +0.080 C 
BRANCH   2   4
ATOM      3  C   LIG    1       -0.016   1.307   0.009  0.00  0.00    +0.050 C 
ATOM      4  C   LIG    1        0.002  -0.004   0.002  0.00  0.00    -0.070 C 
ATOM      5 CL   LIG    1        1.517  -0.852  -0.017  0.00  0.00    -0.090 Cl
ENDBRANCH   2   4
ENDBRANCH   1   2
BRANCH   1   6
ATOM      6  C   LIG    1       -2.995  -1.919  -1.417  0.00  0.00    +0.010 C 
BRANCH   6   7
ATOM      7  C   LIG    1       -3.382  -2.281  -2.852  0.00  0.00    -0.070 C 
ATOM      8  C   LIG    1       -3.557  -1.000  -3.671  0.00  0.00    +0.020 C 
ATOM      9  C   LIG    1       -4.697  -3.064  -2.844  0.00  0.00    +0.010 C 
ATOM     10  C   LIG    1       -2.281  -3.140  -3.477  0.00  0.00    +0.010 C 
ENDBRANCH   6   7
ENDBRANCH   1   6
TORSDOF 4
ENDMDL
MODEL       54
REMARK  Name = ZINC000100022432
REMARK                            x       y       z     vdW  Elec       q    Type
REMARK                         _______ _______ _______ _____ _____    ______ ____
ROOT
ATOM      1  C   LIG    1       -4.441  -4.633  -0.335  0.00  0.00    +0.000 C 
ENDROOT
BRANCH   1   2
ATOM      2  C   LIG    1       -3.042  -4.073  -0.596  0.00  0.00    +0.000 C 
BRANCH   2   3
ATOM      3  C   LIG    1       -3.100  -2.544  -0.618  0.00  0.00    +0.000 C 
BRANCH   3   4
ATOM      4  C   LIG    1       -1.701  -1.984  -0.879  0.00  0.00    +0.000 C 
BRANCH   4   5
ATOM      5  C   LIG    1       -1.759  -0.455  -0.902  0.00  0.00    +0.000 C 
BRANCH   5   7
ATOM      6  C   LIG    1       -0.418   1.634  -1.185  0.00  0.00    +0.000 C 
ATOM      7  C   LIG    1       -0.360   0.105  -1.163  0.00  0.00    -0.010 C 
ENDBRANCH   5   7
ENDBRANCH   4   5
ENDBRANCH   3   4
ENDBRANCH   2   3
ENDBRANCH   1   2
BRANCH   1   8
ATOM      8  C   LIG    1       -4.383  -6.162  -0.312  0.00  0.00    +0.010 C 
BRANCH   8   9
ATOM      9  C   LIG    1       -5.783  -6.722  -0.051  0.00  0.00    +0.040 C 
BRANCH   9  10
ATOM     10  C   LIG    1       -5.725  -8.228  -0.029  0.00  0.00    -0.020 C 
ATOM     11  C   LIG    1       -6.206  -8.887   0.996  0.00  0.00    -0.040 C 
BRANCH  11  12
ATOM     12  C   LIG    1       -6.955  -8.153   2.079  0.00  0.00    +0.210 C 
BRANCH  12  13
ATOM     13  O   LIG    1       -8.127  -8.892   2.431  0.00  0.00    -0.570 OA
ATOM     14  H   LIG    1       -8.659  -8.478   3.123  0.00  0.00    +0.380 HD
ENDBRANCH  12  13
ENDBRANCH  11  12
ENDBRANCH   9  10
ENDBRANCH   8   9
ENDBRANCH   1   8
TORSDOF 10
ENDMDL
MODEL       55
REMARK  Name = ZINC000096068418
REMARK                            x       y       z     vdW  Elec       q    Type
REMARK                         _______ _______ _______ _____ _____    ______ ____
ROOT
ATOM      1  C   LIG    1       -0.016   1.306   0.009  0.00  0.00    +0.010 C 
ATOM      2  C   LIG    1        0.002  -0.004   0.002  0.00  0.00    -0.110 C 
ATOM      3  C   LIG    1       -1.286  -0.797   0.004  0.00  0.00    +0.050 C 
ATOM      4  C   LIG    1       -1.219  -1.832   1.132  0.00  0.00    +0.020 C 
ATOM      5  C   LIG    1        0.043  -2.680   0.970  0.00  0.00    +0.020 C 
ATOM      6  C   LIG    1        1.284  -1.798   1.120  0.00  0.00    -0.050 C 
ATOM      7  C   LIG    1        2.540  -2.667   1.046  0.00  0.00    +0.030 C 
ATOM      8  C   LIG    1        1.239  -1.080   2.470  0.00  0.00    +0.030 C 
ATOM      9  C   LIG    1        1.311  -0.762  -0.015  0.00  0.00    +0.060 C 
ENDROOT
BRANCH   9  10
ATOM     10  C   LIG    1        2.455   0.195   0.202  0.00  0.00    +0.090 C 
ATOM     11  C   LIG    1        3.417   0.303  -0.717  0.00  0.00    -0.120 C 
BRANCH  11  12
ATOM     12  C   LIG    1        4.527   1.232  -0.507  0.00  0.00    +0.380 C 
ATOM     13  O   LIG    1        4.574   1.904   0.502  0.00  0.00    -0.470 OA
ATOM     14  C   LIG    1        5.614   1.354  -1.545  0.00  0.00    +0.060 C 
ENDBRANCH  11  12
ENDBRANCH   9  10
TORSDOF 2
ENDMDL
MODEL       56
REMARK  Name = ZINC000100173958
REMARK                            x       y       z     vdW  Elec       q    Type
REMARK                         _______ _______ _______ _____ _____    ______ ____
ROOT
ATOM      1  C   LIG    1       -3.224  -1.879  -0.907  0.00  0.00    +0.040 C 
ENDROOT
BRANCH   1   3
ATOM      2  C   LIG    1       -1.412  -0.526   0.013  0.00  0.00    -0.050 C 
ATOM      3  C   LIG    1       -1.810  -1.358  -0.917  0.00  0.00    -0.050 C 
BRANCH   2   5
ATOM      4  C   LIG    1       -0.019   1.526   0.010  0.00  0.00    +0.010 C 
ATOM      5  C   LIG    1        0.002  -0.004   0.002  0.00  0.00    +0.030 C 
ENDBRANCH   2   5
ENDBRANCH   1   3
BRANCH   1   6
ATOM      6  C   LIG    1       -3.886  -1.586  -2.254  0.00  0.00    +0.000 C 
BRANCH   6   7
ATOM      7  C   LIG    1       -5.321  -2.115  -2.244  0.00  0.00    +0.000 C 
BRANCH   7   8
ATOM      8  C   LIG    1       -5.983  -1.822  -3.591  0.00  0.00    +0.000 C 
BRANCH   8   9
ATOM      9  C   LIG    1       -7.419  -2.352  -3.580  0.00  0.00    -0.010 C 
ATOM     10  C   LIG    1       -8.081  -2.058  -4.928  0.00  0.00    +0.000 C 
ENDBRANCH   8   9
ENDBRANCH   7   8
ENDBRANCH   6   7
ENDBRANCH   1   6
TORSDOF 6
ENDMDL
MODEL       57
REMARK  Name = ZINC000001850080
REMARK                            x       y       z     vdW  Elec       q    Type
REMARK                         _______ _______ _______ _____ _____    ______ ____
ROOT
ATOM      1  C   LIG    1       -0.016   1.306   0.009  0.00  0.00    +0.010 C 
ATOM      2  C   LIG    1        0.002  -0.004   0.002  0.00  0.00    -0.110 C 
ATOM      3  C   LIG    1       -1.286  -0.797   0.004  0.00  0.00    +0.050 C 
ATOM      4  C   LIG    1       -1.219  -1.832   1.132  0.00  0.00    +0.020 C 
ATOM      5  C   LIG    1        0.043  -2.680   0.970  0.00  0.00    +0.020 C 
ATOM      6  C   LIG    1        1.284  -1.798   1.120  0.00  0.00    -0.050 C 
ATOM      7  C   LIG    1        2.540  -2.667   1.046  0.00  0.00    +0.030 C 
ATOM      8  C   LIG    1        1.239  -1.080   2.470  0.00  0.00    +0.030 C 
ATOM      9  C   LIG    1        1.311  -0.762  -0.015  0.00  0.00    +0.060 C 
ENDROOT
BRANCH   9  10
ATOM     10  C   LIG    1        1.486  -1.464  -1.337  0.00  0.00    +0.090 C 
ATOM     11  C   LIG    1        2.545  -1.191  -2.102  0.00  0.00    -0.120 C 
BRANCH  11  12
ATOM     12  C   LIG    1        2.715  -1.872  -3.385  0.00  0.00    +0.380 C 
ATOM     13  O   LIG    1        1.893  -2.685  -3.754  0.00  0.00    -0.470 OA
ATOM     14  C   LIG    1        3.910  -1.563  -4.250  0.00  0.00    +0.060 C 
ENDBRANCH  11  12
ENDBRANCH   9  10
TORSDOF 2
ENDMDL
MODEL       58
REMARK  Name = ZINC000071785500
REMARK                            x       y       z     vdW  Elec       q    Type
REMARK                         _______ _______ _______ _____ _____    ______ ____
ROOT
ATOM      1  C   LIG    1       -0.016   1.306   0.009  0.00  0.00    +0.060 C 
ATOM      2  C   LIG    1        0.002  -0.004   0.002  0.00  0.00    -0.120 C 
ATOM      3  C   LIG    1       -1.172  -0.965   0.001  0.00  0.00    +0.110 C 
ATOM      4  C   LIG    1       -1.527  -1.324  -1.403  0.00  0.00    -0.010 C 
ATOM      5  C   LIG    1       -0.727  -1.478  -2.408  0.00  0.00    +0.000 C 
ATOM      6  C   LIG    1        0.720  -1.458  -2.423  0.00  0.00    +0.000 C 
ATOM      7  C   LIG    1        1.537  -1.283  -1.435  0.00  0.00    -0.010 C 
ATOM      8  C   LIG    1       -0.657  -2.190   0.733  0.00  0.00    -0.080 A 
ATOM      9  C   LIG    1       -1.321  -3.240   1.341  0.00  0.00    +0.020 A 
ATOM     10  C   LIG    1       -0.609  -4.263   1.939  0.00  0.00    +0.010 A 
ATOM     11  C   LIG    1        0.773  -4.243   1.925  0.00  0.00    +0.010 A 
ATOM     12  C   LIG    1        1.443  -3.200   1.313  0.00  0.00    +0.020 A 
ATOM     13  C   LIG    1        0.732  -2.177   0.715  0.00  0.00    -0.080 A 
ATOM     14  C   LIG    1        1.202  -0.932  -0.014  0.00  0.00    +0.110 C 
ENDROOT
TORSDOF 0
ENDMDL
MODEL       59
REMARK  Name = ZINC000004800742
REMARK                            x       y       z     vdW  Elec       q    Type
REMARK                         _______ _______ _______ _____ _____    ______ ____
ROOT
ATOM      1  C   LIG    1        2.251   1.455  -0.388  0.00  0.00    +0.020 C 
ATOM      2  C   LIG    1        1.248   0.710   0.005  0.00  0.00    -0.100 C 
ATOM      3  C   LIG    1       -0.068   1.296   0.517  0.00  0.00    +0.020 C 
ATOM      4  C   LIG    1       -0.746   0.245   1.429  0.00  0.00    +0.010 C 
ATOM      5  C   LIG    1       -1.182  -0.439   0.121  0.00  0.00    -0.030 C 
ATOM      6  C   LIG    1       -0.082  -1.319  -0.485  0.00  0.00    +0.050 C 
ATOM      7  C   LIG    1       -1.198   1.003  -0.493  0.00  0.00    -0.080 C 
ATOM      8  C   LIG    1       -0.763   1.055  -1.959  0.00  0.00    +0.030 C 
ATOM      9  C   LIG    1       -2.490   1.776  -0.223  0.00  0.00    +0.050 C 
ATOM     10  C   LIG    1        1.292  -0.811  -0.015  0.00  0.00    +0.050 C 
ENDROOT
BRANCH  10  11
ATOM     11  C   LIG    1        1.574  -1.309   1.405  0.00  0.00    +0.110 C 
BRANCH  11  12
ATOM     12  S   LIG    1        3.074  -2.329   1.401  0.00  0.00    -0.270 S 
ATOM     13  C   LIG    1        3.239  -2.817   3.141  0.00  0.00    +0.140 C 
ENDBRANCH  11  12
ENDBRANCH  10  11
TORSDOF 2
ENDMDL
MODEL       60
REMARK  Name = ZINC000002579258
REMARK                            x       y       z     vdW  Elec       q    Type
REMARK                         _______ _______ _______ _____ _____    ______ ____
ROOT
ATOM      1  C   LIG    1       -2.791  -6.769  -0.008  0.00  0.00    +0.000 C 
ENDROOT
BRANCH   1   2
ATOM      2  C   LIG    1       -2.812  -5.239   0.001  0.00  0.00    +0.000 C 
BRANCH   2   3
ATOM      3  C   LIG    1       -1.377  -4.709  -0.010  0.00  0.00    +0.001 C 
BRANCH   3   4
ATOM      4  C   LIG    1       -1.397  -3.179  -0.002  0.00  0.00    +0.013 C 
BRANCH   4   5
ATOM      5  C   LIG    1        0.038  -2.650  -0.013  0.00  0.00    +0.089 C 
BRANCH   5   8
ATOM      6  C   LIG    1       -0.018   1.468   0.010  0.00  0.00    +0.106 C 
ATOM      7  C   LIG    1        0.002  -0.004   0.002  0.00  0.00    -0.106 C 
ATOM      8  C   LIG    1        0.018  -1.178  -0.004  0.00  0.00    -0.102 C 
ENDBRANCH   5   8
ENDBRANCH   4   5
ENDBRANCH   3   4
ENDBRANCH   2   3
ENDBRANCH   1   2
BRANCH   1   9
ATOM      9  C   LIG    1       -4.227  -7.298   0.003  0.00  0.00    +0.000 C 
BRANCH   9  10
ATOM     10  C   LIG    1       -4.206  -8.828  -0.005  0.00  0.00    +0.000 C 
BRANCH  10  11
ATOM     11  C   LIG    1       -5.641  -9.358   0.006  0.00  0.00    +0.002 C 
BRANCH  11  12
ATOM     12  C   LIG    1       -5.621 -10.887  -0.003  0.00  0.00    +0.028 C 
BRANCH  12  13
ATOM     13  C   LIG    1       -7.056 -11.417   0.008  0.00  0.00    +0.156 C 
BRANCH  13  14
ATOM     14  O   LIG    1       -7.037 -12.846   0.000  0.00  0.00    -0.395 OA
ATOM     15  H   LIG    1       -7.915 -13.251   0.006  0.00  0.00    +0.209 HD
ENDBRANCH  13  14
ENDBRANCH  12  13
ENDBRANCH  11  12
ENDBRANCH  10  11
ENDBRANCH   9  10
ENDBRANCH   1   9
TORSDOF 11
ENDMDL
MODEL       61
REMARK  Name = ZINC000001596960
REMARK                            x       y       z     vdW  Elec       q    Type
REMARK                         _______ _______ _______ _____ _____    ______ ____
ROOT
ATOM      1  C   LIG    1        1.269  -0.825   0.043  0.00  0.00    +0.020 C 
ATOM      2  C   LIG    1        2.469   0.076   0.229  0.00  0.00    -0.130 C 
ATOM      3  C   LIG    1        3.042  -0.279   1.373  0.00  0.00    -0.100 C 
ATOM      4  C   LIG    1        2.308  -1.382   1.998  0.00  0.00    -0.100 C 
ATOM      5  C   LIG    1        2.684  -2.031   3.304  0.00  0.00    +0.100 C 
ATOM      6  C   LIG    1        4.278   0.363   1.948  0.00  0.00    +0.090 C 
ATOM      7  C   LIG    1        2.925   1.168  -0.703  0.00  0.00    +0.110 C 
ATOM      8  C   LIG    1        1.415  -1.650  -1.238  0.00  0.00    +0.050 C 
ATOM      9  C   LIG    1        1.266  -1.731   1.254  0.00  0.00    -0.130 C 
ATOM     10  C   LIG    1        0.270  -2.821   1.557  0.00  0.00    +0.120 C 
ENDROOT
BRANCH   1  12
ATOM     11  C   LIG    1       -0.856  -0.187  -0.977  0.00  0.00    +0.000 C 
ATOM     12  C   LIG    1        0.003  -0.009  -0.004  0.00  0.00    -0.010 C 
ENDBRANCH   1  12
TORSDOF 1
ENDMDL
MODEL       62
REMARK  Name = ZINC000001577327
REMARK                            x       y       z     vdW  Elec       q    Type
REMARK                         _______ _______ _______ _____ _____    ______ ____
ROOT
ATOM      1  C   LIG    1       -4.263  -4.652   0.018  0.00  0.00    +0.010 C 
ENDROOT
BRANCH   1   2
ATOM      2  C   LIG    1       -2.827  -4.123   0.007  0.00  0.00    +0.000 C 
BRANCH   2   3
ATOM      3  C   LIG    1       -2.848  -2.593   0.015  0.00  0.00    +0.000 C 
BRANCH   3   4
ATOM      4  C   LIG    1       -1.413  -2.063   0.004  0.00  0.00    +0.000 C 
BRANCH   4   5
ATOM      5  C   LIG    1       -1.433  -0.534   0.013  0.00  0.00    +0.000 C 
BRANCH   5   7
ATOM      6  C   LIG    1       -0.019   1.526   0.010  0.00  0.00    +0.000 C 
ATOM      7  C   LIG    1        0.002  -0.004   0.002  0.00  0.00    -0.010 C 
ENDBRANCH   5   7
ENDBRANCH   4   5
ENDBRANCH   3   4
ENDBRANCH   2   3
ENDBRANCH   1   2
BRANCH   1   8
ATOM      8  C   LIG    1       -4.242  -6.182   0.009  0.00  0.00    +0.030 C 
BRANCH   8   9
ATOM      9  C   LIG    1       -5.677  -6.712   0.020  0.00  0.00    +0.120 C 
ATOM     10  C   LIG    1       -6.431  -6.119   1.212  0.00  0.00    +0.010 C 
ATOM     11  C   LIG    1       -5.657  -8.237   0.138  0.00  0.00    +0.010 C 
BRANCH   9  12
ATOM     12  O   LIG    1       -6.333  -6.336  -1.193  0.00  0.00    -0.560 OA
ATOM     13  H   LIG    1       -7.249  -6.639  -1.255  0.00  0.00    +0.370 HD
ENDBRANCH   9  12
ENDBRANCH   8   9
ENDBRANCH   1   8
TORSDOF 8
ENDMDL
MODEL       63
REMARK  Name = ZINC000001664672
REMARK                            x       y       z     vdW  Elec       q    Type
REMARK                         _______ _______ _______ _____ _____    ______ ____
ROOT
ATOM      1  C   LIG    1       -3.974  -4.272  -2.346  0.00  0.00    +0.000 C 
ENDROOT
BRANCH   1   2
ATOM      2  C   LIG    1       -2.659  -3.489  -2.355  0.00  0.00    +0.000 C 
BRANCH   2   3
ATOM      3  C   LIG    1       -2.633  -2.524  -1.168  0.00  0.00    +0.000 C 
BRANCH   3   4
ATOM      4  C   LIG    1       -1.319  -1.741  -1.176  0.00  0.00    +0.000 C 
BRANCH   4   5
ATOM      5  C   LIG    1       -1.293  -0.775   0.010  0.00  0.00    +0.040 C 
BRANCH   5   7
ATOM      6  C   LIG    1       -0.016   1.306   0.009  0.00  0.00    +0.000 C 
ATOM      7  C   LIG    1        0.002  -0.004   0.002  0.00  0.00    -0.050 C 
ENDBRANCH   5   7
ENDBRANCH   4   5
ENDBRANCH   3   4
ENDBRANCH   2   3
ENDBRANCH   1   2
BRANCH   1   8
ATOM      8  C   LIG    1       -4.000  -5.238  -3.533  0.00  0.00    +0.000 C 
BRANCH   8   9
ATOM      9  C   LIG    1       -5.314  -6.021  -3.525  0.00  0.00    +0.030 C 
BRANCH   9  10
ATOM     10  C   LIG    1       -5.340  -6.986  -4.711  0.00  0.00    +0.030 C 
BRANCH  10  11
ATOM     11  C   LIG    1       -6.635  -7.757  -4.703  0.00  0.00    +0.350 C 
ATOM     12  O   LIG    1       -7.452  -7.555  -3.837  0.00  0.00    -0.460 OA
ATOM     13  C   LIG    1       -6.910  -8.780  -5.775  0.00  0.00    +0.050 C 
ENDBRANCH  10  11
ENDBRANCH   9  10
ENDBRANCH   8   9
ENDBRANCH   1   8
TORSDOF 9
ENDMDL
MODEL       64
REMARK  Name = ZINC000001717284
REMARK                            x       y       z     vdW  Elec       q    Type
REMARK                         _______ _______ _______ _____ _____    ______ ____
ROOT
ATOM      1  C   LIG    1        1.370  -1.717   1.161  0.00  0.00    -0.090 C 
ENDROOT
BRANCH   1   2
ATOM      2  C   LIG    1        1.237  -0.955   2.455  0.00  0.00    +0.370 C 
ATOM      3  O   LIG    1        0.319  -1.190   3.203  0.00  0.00    -0.450 OA
BRANCH   2   4
ATOM      4  C   LIG    1        2.249   0.102   2.814  0.00  0.00    +0.020 C 
ATOM      5  C   LIG    1        1.885   0.718   4.166  0.00  0.00    +0.040 C 
ENDBRANCH   2   4
ENDBRANCH   1   2
BRANCH   1   6
ATOM      6  C   LIG    1        1.317  -0.740  -0.015  0.00  0.00    +0.090 C 
BRANCH   6   8
ATOM      7  C   LIG    1       -0.016   1.306   0.009  0.00  0.00    +0.010 C 
ATOM      8  C   LIG    1        0.002  -0.004   0.002  0.00  0.00    -0.050 C 
ENDBRANCH   6   8
ENDBRANCH   1   6
BRANCH   1   9
ATOM      9  C   LIG    1        2.705  -2.464   1.145  0.00  0.00    +0.080 C 
BRANCH   9  10
ATOM     10  C   LIG    1        2.756  -3.427   2.303  0.00  0.00    -0.060 C 
ATOM     11  C   LIG    1        2.997  -4.697   2.089  0.00  0.00    +0.020 C 
ENDBRANCH   9  10
ENDBRANCH   1   9
BRANCH   1  12
ATOM     12  C   LIG    1        0.222  -2.722   1.041  0.00  0.00    +0.070 C 
BRANCH  12  13
ATOM     13  C   LIG    1        0.355  -3.484  -0.252  0.00  0.00    -0.040 C 
ATOM     14  C   LIG    1        0.391  -4.793  -0.239  0.00  0.00    +0.010 C 
ENDBRANCH  12  13
ENDBRANCH   1  12
TORSDOF 8
ENDMDL
MODEL       65
REMARK  Name = ZINC000071792242
REMARK                            x       y       z     vdW  Elec       q    Type
REMARK                         _______ _______ _______ _____ _____    ______ ____
ROOT
ATOM      1  C   LIG    1       -2.659  -3.489  -2.355  0.00  0.00    +0.035 C 
ENDROOT
BRANCH   1   2
ATOM      2  C   LIG    1       -3.954  -4.260  -2.346  0.00  0.00    -0.047 A 
ATOM      3  C   LIG    1       -4.041  -5.457  -1.661  0.00  0.00    +0.003 A 
ATOM      4  C   LIG    1       -5.229  -6.165  -1.653  0.00  0.00    +0.000 A 
ATOM      5  C   LIG    1       -6.329  -5.675  -2.331  0.00  0.00    +0.000 A 
ATOM      6  C   LIG    1       -6.242  -4.477  -3.016  0.00  0.00    +0.000 A 
ATOM      7  C   LIG    1       -5.056  -3.768  -3.020  0.00  0.00    +0.003 A 
ENDBRANCH   1   2
BRANCH   1   8
ATOM      8  C   LIG    1       -2.633  -2.524  -1.168  0.00  0.00    +0.005 C 
BRANCH   8   9
ATOM      9  C   LIG    1       -1.319  -1.741  -1.176  0.00  0.00    +0.004 C 
BRANCH   9  10
ATOM     10  C   LIG    1       -1.293  -0.775   0.010  0.00  0.00    +0.026 C 
BRANCH  10  12
ATOM     11  C   LIG    1       -0.016   1.306   0.009  0.00  0.00    +0.004 C 
ATOM     12  C   LIG    1        0.002  -0.004   0.002  0.00  0.00    -0.034 C 
ENDBRANCH  10  12
ENDBRANCH   9  10
ENDBRANCH   8   9
ENDBRANCH   1   8
TORSDOF 5
ENDMDL
MODEL       66
REMARK  Name = ZINC000001618490
REMARK                            x       y       z     vdW  Elec       q    Type
REMARK                         _______ _______ _______ _____ _____    ______ ____
ROOT
ATOM      1  N   LIG    1        2.755  -3.400   2.271  0.00  0.00    -0.347 N 
ATOM      2  C   LIG    1        3.318  -3.134   3.489  0.00  0.00    +0.087 A 
ATOM      3  C   LIG    1        3.195  -4.202   4.293  0.00  0.00    +0.027 A 
ATOM      4  C   LIG    1        2.496  -5.237   3.527  0.00  0.00    -0.000 A 
ATOM      5  C   LIG    1        2.082  -6.540   3.808  0.00  0.00    +0.010 A 
ATOM      6  C   LIG    1        1.433  -7.267   2.851  0.00  0.00    +0.001 A 
ATOM      7  C   LIG    1        1.181  -6.721   1.600  0.00  0.00    +0.002 A 
ATOM      8  C   LIG    1        1.580  -5.436   1.301  0.00  0.00    +0.026 A 
ATOM      9  C   LIG    1        2.237  -4.676   2.263  0.00  0.00    +0.049 A 
ENDROOT
BRANCH   1  10
ATOM     10  C   LIG    1        2.705  -2.464   1.145  0.00  0.00    +0.122 C 
BRANCH  10  11
ATOM     11  C   LIG    1        1.370  -1.717   1.161  0.00  0.00    +0.026 C 
BRANCH  11  12
ATOM     12  C   LIG    1        1.317  -0.740  -0.015  0.00  0.00    +0.028 C 
BRANCH  12  14
ATOM     13  C   LIG    1       -0.016   1.306   0.009  0.00  0.00    +0.004 C 
ATOM     14  C   LIG    1        0.002  -0.004   0.002  0.00  0.00    -0.034 C 
ENDBRANCH  12  14
ENDBRANCH  11  12
ENDBRANCH  10  11
ENDBRANCH   1  10
TORSDOF 4
ENDMDL
MODEL       67
REMARK  Name = ZINC000019418639
REMARK                            x       y       z     vdW  Elec       q    Type
REMARK                         _______ _______ _______ _____ _____    ______ ____
ROOT
ATOM      1  C   LIG    1       -1.965  -0.531   0.343  0.00  0.00    +0.097 C 
ATOM      2  C   LIG    1       -2.572  -1.632   0.860  0.00  0.00    +0.034 C 
ENDROOT
BRANCH   1   3
ATOM      3  N   LIG    1       -2.705   0.567   0.021  0.00  0.00    -0.250 NA
ATOM      4  C   LIG    1       -3.599   0.493  -0.913  0.00  0.00    +0.014 C 
ATOM      5  C   LIG    1       -4.513   1.662  -1.176  0.00  0.00    +0.060 C 
ATOM      6  C   LIG    1       -3.726  -0.763  -1.737  0.00  0.00    +0.060 C 
ENDBRANCH   1   3
BRANCH   2   7
ATOM      7  C   LIG    1       -1.791  -2.838   1.128  0.00  0.00    +0.001 C 
ATOM      8  C   LIG    1       -2.402  -3.950   1.544  0.00  0.00    -0.076 C 
ATOM      9  C   LIG    1       -1.623  -5.233   1.678  0.00  0.00    +0.039 C 
ATOM     10  C   LIG    1       -3.871  -3.921   1.880  0.00  0.00    +0.039 C 
ENDBRANCH   2   7
BRANCH   1  12
ATOM     11  C   LIG    1        0.084   1.128  -0.597  0.00  0.00    +0.091 C 
ATOM     12  S   LIG    1       -0.221  -0.523   0.091  0.00  0.00    -0.109 S 
ENDBRANCH   1  12
TORSDOF 3
ENDMDL
MODEL       68
REMARK  Name = ZINC000002516981
REMARK                            x       y       z     vdW  Elec       q    Type
REMARK                         _______ _______ _______ _____ _____    ______ ____
ROOT
ATOM      1  C   LIG    1        3.375  -2.515   1.242  0.00  0.00    +0.009 C 
ATOM      2  C   LIG    1        4.590  -1.767   1.796  0.00  0.00    +0.012 C 
ENDROOT
BRANCH   1   3
ATOM      3  C   LIG    1        2.903  -3.526   2.255  0.00  0.00    -0.025 C 
ATOM      4  C   LIG    1        2.762  -4.782   1.910  0.00  0.00    -0.079 C 
ATOM      5  C   LIG    1        2.426  -5.817   2.953  0.00  0.00    +0.038 C 
ATOM      6  C   LIG    1        2.934  -5.192   0.470  0.00  0.00    +0.038 C 
ENDBRANCH   1   3
BRANCH   1   7
ATOM      7  C   LIG    1        2.251  -1.518   0.954  0.00  0.00    +0.011 C 
BRANCH   7   8
ATOM      8  C   LIG    1        2.685  -0.568  -0.164  0.00  0.00    +0.027 C 
BRANCH   8  10
ATOM      9  C   LIG    1        1.815   1.701  -0.399  0.00  0.00    +0.004 C 
ATOM     10  C   LIG    1        1.577   0.414  -0.447  0.00  0.00    -0.034 C 
ENDBRANCH   8  10
ENDBRANCH   7   8
ENDBRANCH   1   7
TORSDOF 4
ENDMDL
MODEL       69
REMARK  Name = ZINC000001720091
REMARK                            x       y       z     vdW  Elec       q    Type
REMARK                         _______ _______ _______ _____ _____    ______ ____
ROOT
ATOM      1  C   LIG    1        2.381  -2.064   1.588  0.00  0.00    +0.009 C 
ATOM      2  C   LIG    1        2.369  -2.546   0.136  0.00  0.00    +0.012 C 
ENDROOT
BRANCH   1   3
ATOM      3  C   LIG    1        2.714  -3.218   2.498  0.00  0.00    -0.025 C 
ATOM      4  C   LIG    1        3.837  -3.219   3.172  0.00  0.00    -0.079 C 
ATOM      5  C   LIG    1        4.107  -4.300   4.186  0.00  0.00    +0.038 C 
ATOM      6  C   LIG    1        4.859  -2.137   2.934  0.00  0.00    +0.038 C 
ENDBRANCH   1   3
BRANCH   1   7
ATOM      7  C   LIG    1        1.004  -1.508   1.953  0.00  0.00    +0.011 C 
BRANCH   7   8
ATOM      8  C   LIG    1        0.719  -0.260   1.114  0.00  0.00    +0.027 C 
BRANCH   8  10
ATOM      9  C   LIG    1       -0.761   1.536   1.854  0.00  0.00    +0.004 C 
ATOM     10  C   LIG    1       -0.638   0.288   1.474  0.00  0.00    -0.034 C 
ENDBRANCH   8  10
ENDBRANCH   7   8
ENDBRANCH   1   7
TORSDOF 4
ENDMDL
MODEL       70
REMARK  Name = ZINC000057937457
REMARK                            x       y       z     vdW  Elec       q    Type
REMARK                         _______ _______ _______ _____ _____    ______ ____
ROOT
ATOM      1  C   LIG    1       -2.826  -2.585   0.015  0.00  0.00    -0.080 A 
ATOM      2  C   LIG    1       -3.465  -2.825   1.217  0.00  0.00    +0.000 A 
ATOM      3  C   LIG    1       -4.762  -3.304   1.227  0.00  0.00    +0.010 A 
ATOM      4  C   LIG    1       -5.420  -3.542   0.035  0.00  0.00    -0.090 A 
ATOM      5  C   LIG    1       -4.782  -3.300  -1.167  0.00  0.00    +0.010 A 
ATOM      6  C   LIG    1       -3.486  -2.818  -1.177  0.00  0.00    +0.000 A 
ENDROOT
BRANCH   1   7
ATOM      7  C   LIG    1       -1.413  -2.063   0.004  0.00  0.00    +0.060 C 
BRANCH   7   8
ATOM      8  C   LIG    1       -1.433  -0.534   0.013  0.00  0.00    +0.010 C 
BRANCH   8  10
ATOM      9  C   LIG    1       -0.019   1.526   0.010  0.00  0.00    +0.000 C 
ATOM     10  C   LIG    1        0.002  -0.004   0.002  0.00  0.00    -0.010 C 
ENDBRANCH   8  10
ENDBRANCH   7   8
ENDBRANCH   1   7
BRANCH   4  11
ATOM     11  C   LIG    1       -6.834  -4.064   0.045  0.00  0.00    +0.120 C 
BRANCH  11  12
ATOM     12  C   LIG    1       -7.812  -2.887   0.055  0.00  0.00    +0.100 C 
BRANCH  12  13
ATOM     13  S   LIG    1       -9.514  -3.516   0.068  0.00  0.00    -0.250 S 
ATOM     14  H   LIG    1      -10.251  -2.391   0.076  0.00  0.00    +0.090 HD
ENDBRANCH  12  13
ENDBRANCH  11  12
ENDBRANCH   4  11
TORSDOF 6
ENDMDL
MODEL       71
REMARK  Name = ZINC000038950356
REMARK                            x       y       z     vdW  Elec       q    Type
REMARK                         _______ _______ _______ _____ _____    ______ ____
ROOT
ATOM      1  C   LIG    1       -1.412  -0.526   0.013  0.00  0.00    -0.070 A 
ATOM      2  C   LIG    1       -1.860  -1.326  -1.023  0.00  0.00    +0.050 A 
ATOM      3  C   LIG    1       -3.156  -1.810  -1.021  0.00  0.00    -0.070 A 
ATOM      4  C   LIG    1       -4.011  -1.496   0.015  0.00  0.00    +0.060 A 
ATOM      5  C   LIG    1       -3.565  -0.689   1.064  0.00  0.00    -0.020 A 
ATOM      6  C   LIG    1       -2.254  -0.209   1.058  0.00  0.00    +0.060 A 
ENDROOT
BRANCH   1   8
ATOM      7  C   LIG    1       -0.019   1.526   0.010  0.00  0.00    +0.030 C 
ATOM      8  C   LIG    1        0.002  -0.004   0.002  0.00  0.00    +0.020 C 
ATOM      9  C   LIG    1        0.742  -0.511   1.242  0.00  0.00    +0.030 C 
ENDBRANCH   1   8
BRANCH   3  10
ATOM     10  C   LIG    1       -3.636  -2.681  -2.154  0.00  0.00    +0.020 C 
ATOM     11  C   LIG    1       -4.825  -2.011  -2.845  0.00  0.00    +0.030 C 
ATOM     12  C   LIG    1       -4.066  -4.042  -1.603  0.00  0.00    +0.030 C 
ENDBRANCH   3  10
BRANCH   5  13
ATOM     13  C   LIG    1       -4.447  -0.359   2.143  0.00  0.00    +0.250 C 
ATOM     14  N   LIG    1       -5.147  -0.098   2.999  0.00  0.00    -0.410 NA
ENDBRANCH   5  13
TORSDOF 3
ENDMDL
MODEL       72
REMARK  Name = ZINC000002146760
REMARK                            x       y       z     vdW  Elec       q    Type
REMARK                         _______ _______ _______ _____ _____    ______ ____
ROOT
ATOM      1  C   LIG    1        2.326  -3.685   2.038  0.00  0.00    +0.020 C 
ENDROOT
BRANCH   1   2
ATOM      2  C   LIG    1        2.482  -2.574   0.997  0.00  0.00    +0.160 C 
BRANCH   2   3
ATOM      3  O   LIG    1        1.277  -1.809   0.933  0.00  0.00    -0.390 OA
BRANCH   3   4
ATOM      4  C   LIG    1        1.317  -0.740  -0.015  0.00  0.00    +0.200 C 
BRANCH   4   6
ATOM      5  C   LIG    1       -0.016   1.306   0.009  0.00  0.00    +0.030 C 
ATOM      6  C   LIG    1        0.002  -0.004   0.002  0.00  0.00    -0.040 C 
ENDBRANCH   4   6
ENDBRANCH   3   4
ENDBRANCH   2   3
ENDBRANCH   1   2
BRANCH   1   7
ATOM      7  C   LIG    1        3.616  -4.504   2.107  0.00  0.00    +0.000 C 
BRANCH   7   8
ATOM      8  C   LIG    1        3.460  -5.615   3.147  0.00  0.00    +0.000 C 
BRANCH   8   9
ATOM      9  C   LIG    1        4.750  -6.434   3.216  0.00  0.00    +0.000 C 
BRANCH   9  10
ATOM     10  C   LIG    1        4.594  -7.545   4.257  0.00  0.00    +0.000 C 
BRANCH  10  11
ATOM     11  C   LIG    1        5.884  -8.364   4.326  0.00  0.00    -0.010 C 
ATOM     12  C   LIG    1        5.728  -9.475   5.367  0.00  0.00    +0.000 C 
ENDBRANCH  10  11
ENDBRANCH   9  10
ENDBRANCH   8   9
ENDBRANCH   7   8
ENDBRANCH   1   7
TORSDOF 9
ENDMDL
MODEL       73
REMARK  Name = ZINC000001662576
REMARK                            x       y       z     vdW  Elec       q    Type
REMARK                         _______ _______ _______ _____ _____    ______ ____
ROOT
ATOM      1  C   LIG    1        2.393  -2.577   1.044  0.00  0.00    +0.140 A 
ATOM      2  C   LIG    1        3.505  -2.304   0.262  0.00  0.00    -0.060 A 
ATOM      3  C   LIG    1        4.638  -3.087   0.377  0.00  0.00    -0.040 A 
ATOM      4  C   LIG    1        4.665  -4.141   1.271  0.00  0.00    -0.110 A 
ATOM      5  C   LIG    1        3.557  -4.415   2.053  0.00  0.00    +0.070 A 
ATOM      6  C   LIG    1        5.902  -4.991   1.395  0.00  0.00    +0.100 C 
ATOM      7  C   LIG    1        5.847  -2.790  -0.473  0.00  0.00    +0.110 C 
ATOM      8  C   LIG    1        2.423  -3.633   1.945  0.00  0.00    -0.070 A 
ATOM      9 CL   LIG    1        1.033  -3.979   2.926  0.00  0.00    -0.060 Cl
ENDROOT
BRANCH   1  10
ATOM     10  O   LIG    1        1.277  -1.809   0.933  0.00  0.00    -0.300 OA
BRANCH  10  11
ATOM     11  C   LIG    1        1.317  -0.740  -0.015  0.00  0.00    +0.230 C 
BRANCH  11  13
ATOM     12  C   LIG    1       -0.016   1.306   0.009  0.00  0.00    +0.040 C 
ATOM     13  C   LIG    1        0.002  -0.004   0.002  0.00  0.00    -0.040 C 
ENDBRANCH  11  13
ENDBRANCH  10  11
ENDBRANCH   1  10
TORSDOF 3
ENDMDL
MODEL       74
REMARK  Name = ZINC000001704958
REMARK                            x       y       z     vdW  Elec       q    Type
REMARK                         _______ _______ _______ _____ _____    ______ ____
ROOT
ATOM      1  C   LIG    1       -3.002  -2.522  -1.353  0.00  0.00    -0.080 A 
ATOM      2  C   LIG    1       -3.747  -2.346  -0.193  0.00  0.00    +0.010 A 
ATOM      3  C   LIG    1       -4.958  -2.993  -0.047  0.00  0.00    +0.050 A 
ATOM      4  C   LIG    1       -5.430  -3.817  -1.054  0.00  0.00    -0.040 A 
ATOM      5  C   LIG    1       -4.691  -3.994  -2.211  0.00  0.00    +0.050 A 
ATOM      6 CL   LIG    1       -6.953  -4.630  -0.867  0.00  0.00    -0.070 Cl
ATOM      7  C   LIG    1       -3.481  -3.345  -2.365  0.00  0.00    +0.050 A 
ENDROOT
BRANCH   1   8
ATOM      8  S   LIG    1       -1.457  -1.697  -1.543  0.00  0.00    -0.100 S 
BRANCH   8   9
ATOM      9  C   LIG    1       -1.293  -0.775   0.010  0.00  0.00    +0.110 C 
BRANCH   9  11
ATOM     10  C   LIG    1       -0.016   1.306   0.009  0.00  0.00    +0.050 C 
ATOM     11  C   LIG    1        0.002  -0.004   0.002  0.00  0.00    -0.030 C 
ENDBRANCH   9  11
ENDBRANCH   8   9
ENDBRANCH   1   8
TORSDOF 3
ENDMDL
MODEL       75
REMARK  Name = ZINC000095733136
REMARK                            x       y       z     vdW  Elec       q    Type
REMARK                         _______ _______ _______ _____ _____    ______ ____
ROOT
ATOM      1  C   LIG    1       -3.002  -2.522  -1.353  0.00  0.00    -0.080 A 
ATOM      2  C   LIG    1       -3.747  -2.346  -0.193  0.00  0.00    +0.000 A 
ATOM      3  C   LIG    1       -4.958  -2.994  -0.047  0.00  0.00    +0.060 A 
ATOM      4  C   LIG    1       -5.430  -3.817  -1.054  0.00  0.00    -0.050 A 
ATOM      5  C   LIG    1       -4.691  -3.994  -2.211  0.00  0.00    -0.050 A 
ATOM      6  C   LIG    1       -5.208  -4.891  -3.306  0.00  0.00    +0.110 C 
ATOM      7 CL   LIG    1       -6.953  -4.629  -0.867  0.00  0.00    -0.060 Cl
ATOM      8  C   LIG    1       -3.482  -3.345  -2.365  0.00  0.00    +0.050 A 
ENDROOT
BRANCH   1   9
ATOM      9  S   LIG    1       -1.457  -1.697  -1.543  0.00  0.00    -0.100 S 
BRANCH   9  10
ATOM     10  C   LIG    1       -1.293  -0.775   0.010  0.00  0.00    +0.110 C 
BRANCH  10  12
ATOM     11  C   LIG    1       -0.016   1.306   0.009  0.00  0.00    +0.050 C 
ATOM     12  C   LIG    1        0.002  -0.004   0.002  0.00  0.00    -0.030 C 
ENDBRANCH  10  12
ENDBRANCH   9  10
ENDBRANCH   1   9
TORSDOF 3
ENDMDL
MODEL       76
REMARK  Name = ZINC000001704972
REMARK                            x       y       z     vdW  Elec       q    Type
REMARK                         _______ _______ _______ _____ _____    ______ ____
ROOT
ATOM      1  C   LIG    1       -3.002  -2.522  -1.353  0.00  0.00    -0.080 A 
ATOM      2  C   LIG    1       -3.747  -2.346  -0.194  0.00  0.00    +0.000 A 
ATOM      3  C   LIG    1       -4.959  -2.994  -0.048  0.00  0.00    +0.040 A 
ATOM      4  C   LIG    1       -5.430  -3.817  -1.054  0.00  0.00    +0.030 A 
ATOM      5  C   LIG    1       -4.692  -3.995  -2.210  0.00  0.00    +0.050 A 
ATOM      6  C   LIG    1       -3.482  -3.346  -2.365  0.00  0.00    -0.020 A 
ATOM      7 CL   LIG    1       -2.556  -3.570  -3.817  0.00  0.00    -0.050 Cl
ENDROOT
BRANCH   1   8
ATOM      8  S   LIG    1       -1.457  -1.697  -1.543  0.00  0.00    -0.080 S 
BRANCH   8   9
ATOM      9  C   LIG    1       -1.293  -0.775   0.010  0.00  0.00    +0.100 C 
BRANCH   9  11
ATOM     10  C   LIG    1       -0.016   1.306   0.009  0.00  0.00    +0.050 C 
ATOM     11  C   LIG    1        0.002  -0.004   0.002  0.00  0.00    -0.030 C 
ENDBRANCH   9  11
ENDBRANCH   8   9
ENDBRANCH   1   8
TORSDOF 3
ENDMDL
MODEL       77
REMARK  Name = ZINC000095733096
REMARK                            x       y       z     vdW  Elec       q    Type
REMARK                         _______ _______ _______ _____ _____    ______ ____
ROOT
ATOM      1  C   LIG    1        3.074  -2.454   1.330  0.00  0.00    -0.080 A 
ATOM      2  C   LIG    1        3.814  -2.246   0.172  0.00  0.00    +0.000 A 
ATOM      3  C   LIG    1        5.042  -2.858   0.019  0.00  0.00    +0.050 A 
ATOM      4  C   LIG    1        5.536  -3.679   1.016  0.00  0.00    -0.080 A 
ATOM      5  C   LIG    1        4.803  -3.890   2.171  0.00  0.00    -0.020 A 
ATOM      6 CL   LIG    1        5.428  -4.921   3.419  0.00  0.00    -0.060 Cl
ATOM      7  C   LIG    1        6.877  -4.346   0.844  0.00  0.00    +0.110 C 
ATOM      8  C   LIG    1        3.575  -3.276   2.332  0.00  0.00    +0.050 A 
ENDROOT
BRANCH   1   9
ATOM      9  S   LIG    1        1.507  -1.674   1.529  0.00  0.00    -0.100 S 
BRANCH   9  10
ATOM     10  C   LIG    1        1.317  -0.740  -0.015  0.00  0.00    +0.110 C 
BRANCH  10  12
ATOM     11  C   LIG    1       -0.016   1.306   0.009  0.00  0.00    +0.050 C 
ATOM     12  C   LIG    1        0.002  -0.004   0.002  0.00  0.00    -0.030 C 
ENDBRANCH  10  12
ENDBRANCH   9  10
ENDBRANCH   1   9
TORSDOF 3
ENDMDL
MODEL       78
REMARK  Name = ZINC000095733114
REMARK                            x       y       z     vdW  Elec       q    Type
REMARK                         _______ _______ _______ _____ _____    ______ ____
ROOT
ATOM      1  C   LIG    1       -3.002  -2.522  -1.353  0.00  0.00    -0.080 A 
ATOM      2  C   LIG    1       -3.748  -2.346  -0.193  0.00  0.00    +0.000 A 
ATOM      3  C   LIG    1       -4.959  -2.994  -0.047  0.00  0.00    +0.050 A 
ATOM      4  C   LIG    1       -5.431  -3.817  -1.053  0.00  0.00    +0.030 A 
ATOM      5  C   LIG    1       -4.691  -3.995  -2.209  0.00  0.00    -0.020 A 
ATOM      6 CL   LIG    1       -5.288  -5.030  -3.469  0.00  0.00    -0.060 Cl
ATOM      7  C   LIG    1       -3.482  -3.345  -2.365  0.00  0.00    -0.060 A 
ATOM      8  C   LIG    1       -2.677  -3.540  -3.624  0.00  0.00    +0.120 C 
ENDROOT
BRANCH   1   9
ATOM      9  S   LIG    1       -1.457  -1.697  -1.543  0.00  0.00    -0.090 S 
BRANCH   9  10
ATOM     10  C   LIG    1       -1.293  -0.775   0.010  0.00  0.00    +0.100 C 
BRANCH  10  12
ATOM     11  C   LIG    1       -0.016   1.306   0.009  0.00  0.00    +0.050 C 
ATOM     12  C   LIG    1        0.002  -0.004   0.002  0.00  0.00    -0.030 C 
ENDBRANCH  10  12
ENDBRANCH   9  10
ENDBRANCH   1   9
TORSDOF 3
ENDMDL
MODEL       79
REMARK  Name = ZINC000001704964
REMARK                            x       y       z     vdW  Elec       q    Type
REMARK                         _______ _______ _______ _____ _____    ______ ____
ROOT
ATOM      1  C   LIG    1        3.074  -2.454   1.330  0.00  0.00    -0.080 A 
ATOM      2  C   LIG    1        3.814  -2.246   0.172  0.00  0.00    +0.000 A 
ATOM      3  C   LIG    1        5.042  -2.858   0.019  0.00  0.00    +0.050 A 
ATOM      4  C   LIG    1        5.536  -3.679   1.016  0.00  0.00    +0.020 A 
ATOM      5  C   LIG    1        4.802  -3.890   2.170  0.00  0.00    -0.020 A 
ATOM      6 CL   LIG    1        5.427  -4.923   3.418  0.00  0.00    -0.060 Cl
ATOM      7  C   LIG    1        3.575  -3.276   2.332  0.00  0.00    +0.050 A 
ENDROOT
BRANCH   1   8
ATOM      8  S   LIG    1        1.507  -1.674   1.529  0.00  0.00    -0.100 S 
BRANCH   8   9
ATOM      9  C   LIG    1        1.317  -0.740  -0.015  0.00  0.00    +0.110 C 
BRANCH   9  11
ATOM     10  C   LIG    1       -0.016   1.306   0.009  0.00  0.00    +0.050 C 
ATOM     11  C   LIG    1        0.002  -0.004   0.002  0.00  0.00    -0.030 C 
ENDBRANCH   9  11
ENDBRANCH   8   9
ENDBRANCH   1   8
TORSDOF 3
ENDMDL
MODEL       80
REMARK  Name = ZINC000095733093
REMARK                            x       y       z     vdW  Elec       q    Type
REMARK                         _______ _______ _______ _____ _____    ______ ____
ROOT
ATOM      1  C   LIG    1        3.074  -2.454   1.330  0.00  0.00    -0.080 A 
ATOM      2  C   LIG    1        3.814  -2.246   0.172  0.00  0.00    +0.010 A 
ATOM      3  C   LIG    1        5.043  -2.859   0.020  0.00  0.00    -0.020 A 
ATOM      4  C   LIG    1        5.536  -3.680   1.019  0.00  0.00    +0.030 A 
ATOM      5  C   LIG    1        4.801  -3.890   2.172  0.00  0.00    +0.050 A 
ATOM      6 CL   LIG    1        5.969  -2.599  -1.425  0.00  0.00    -0.070 Cl
ATOM      7  C   LIG    1        3.576  -3.276   2.333  0.00  0.00    -0.060 A 
ATOM      8  C   LIG    1        2.776  -3.506   3.589  0.00  0.00    +0.110 C 
ENDROOT
BRANCH   1   9
ATOM      9  S   LIG    1        1.507  -1.674   1.529  0.00  0.00    -0.090 S 
BRANCH   9  10
ATOM     10  C   LIG    1        1.317  -0.740  -0.015  0.00  0.00    +0.100 C 
BRANCH  10  12
ATOM     11  C   LIG    1       -0.016   1.306   0.009  0.00  0.00    +0.050 C 
ATOM     12  C   LIG    1        0.002  -0.004   0.002  0.00  0.00    -0.030 C 
ENDBRANCH  10  12
ENDBRANCH   9  10
ENDBRANCH   1   9
TORSDOF 3
ENDMDL
MODEL       81
REMARK  Name = ZINC000095733124
REMARK                            x       y       z     vdW  Elec       q    Type
REMARK                         _______ _______ _______ _____ _____    ______ ____
ROOT
ATOM      1  C   LIG    1        3.074  -2.454   1.330  0.00  0.00    -0.090 A 
ATOM      2  C   LIG    1        3.814  -2.246   0.172  0.00  0.00    -0.010 A 
ATOM      3  C   LIG    1        5.042  -2.859   0.019  0.00  0.00    -0.070 A 
ATOM      4  C   LIG    1        5.535  -3.680   1.017  0.00  0.00    +0.010 A 
ATOM      5  C   LIG    1        4.801  -3.890   2.171  0.00  0.00    +0.030 A 
ATOM      6  C   LIG    1        5.845  -2.634  -1.236  0.00  0.00    +0.090 C 
ATOM      7  C   LIG    1        3.576  -3.276   2.333  0.00  0.00    -0.070 A 
ATOM      8  C   LIG    1        2.777  -3.506   3.590  0.00  0.00    +0.100 C 
ENDROOT
BRANCH   1   9
ATOM      9  S   LIG    1        1.507  -1.674   1.529  0.00  0.00    -0.100 S 
BRANCH   9  10
ATOM     10  C   LIG    1        1.317  -0.740  -0.015  0.00  0.00    +0.100 C 
BRANCH  10  12
ATOM     11  C   LIG    1       -0.016   1.306   0.009  0.00  0.00    +0.050 C 
ATOM     12  C   LIG    1        0.002  -0.004   0.002  0.00  0.00    -0.030 C 
ENDBRANCH  10  12
ENDBRANCH   9  10
ENDBRANCH   1   9
TORSDOF 3
ENDMDL
MODEL       82
REMARK  Name = ZINC000095738579
REMARK                            x       y       z     vdW  Elec       q    Type
REMARK                         _______ _______ _______ _____ _____    ______ ____
ROOT
ATOM      1  C   LIG    1        3.074  -2.454   1.330  0.00  0.00    -0.090 A 
ATOM      2  C   LIG    1        3.814  -2.246   0.172  0.00  0.00    -0.010 A 
ATOM      3  C   LIG    1        5.042  -2.859   0.019  0.00  0.00    +0.020 A 
ATOM      4  C   LIG    1        5.535  -3.680   1.017  0.00  0.00    -0.090 A 
ATOM      5  C   LIG    1        4.802  -3.890   2.171  0.00  0.00    +0.030 A 
ATOM      6  C   LIG    1        3.576  -3.276   2.332  0.00  0.00    +0.030 A 
ENDROOT
BRANCH   1   7
ATOM      7  S   LIG    1        1.507  -1.674   1.529  0.00  0.00    -0.110 S 
BRANCH   7   8
ATOM      8  C   LIG    1        1.317  -0.740  -0.015  0.00  0.00    +0.110 C 
BRANCH   8  10
ATOM      9  C   LIG    1       -0.016   1.306   0.009  0.00  0.00    +0.050 C 
ATOM     10  C   LIG    1        0.002  -0.004   0.002  0.00  0.00    -0.030 C 
ENDBRANCH   8  10
ENDBRANCH   7   8
ENDBRANCH   1   7
BRANCH   4  11
ATOM     11  C   LIG    1        6.875  -4.348   0.847  0.00  0.00    +0.060 C 
BRANCH  11  12
ATOM     12  C   LIG    1        7.972  -3.439   1.405  0.00  0.00    +0.000 C 
ATOM     13  C   LIG    1        9.333  -4.117   1.232  0.00  0.00    +0.010 C 
ENDBRANCH  11  12
ENDBRANCH   4  11
TORSDOF 5
ENDMDL
MODEL       83
REMARK  Name = ZINC000095733129
REMARK                            x       y       z     vdW  Elec       q    Type
REMARK                         _______ _______ _______ _____ _____    ______ ____
ROOT
ATOM      1  C   LIG    1       -3.002  -2.522  -1.353  0.00  0.00    -0.090 A 
ATOM      2  C   LIG    1       -3.747  -2.346  -0.193  0.00  0.00    +0.010 A 
ATOM      3  C   LIG    1       -4.958  -2.994  -0.047  0.00  0.00    +0.040 A 
ATOM      4  C   LIG    1       -5.430  -3.817  -1.054  0.00  0.00    -0.040 A 
ATOM      5  C   LIG    1       -4.691  -3.994  -2.211  0.00  0.00    +0.050 A 
ATOM      6 CL   LIG    1       -6.953  -4.629  -0.867  0.00  0.00    -0.070 Cl
ATOM      7  C   LIG    1       -3.482  -3.345  -2.365  0.00  0.00    -0.050 A 
ATOM      8  C   LIG    1       -2.677  -3.538  -3.625  0.00  0.00    +0.120 C 
ENDROOT
BRANCH   1   9
ATOM      9  S   LIG    1       -1.457  -1.697  -1.543  0.00  0.00    -0.090 S 
BRANCH   9  10
ATOM     10  C   LIG    1       -1.293  -0.775   0.010  0.00  0.00    +0.100 C 
BRANCH  10  12
ATOM     11  C   LIG    1       -0.016   1.306   0.009  0.00  0.00    +0.050 C 
ATOM     12  C   LIG    1        0.002  -0.004   0.002  0.00  0.00    -0.030 C 
ENDBRANCH  10  12
ENDBRANCH   9  10
ENDBRANCH   1   9
TORSDOF 3
ENDMDL
MODEL       84
REMARK  Name = ZINC000095733070
REMARK                            x       y       z     vdW  Elec       q    Type
REMARK                         _______ _______ _______ _____ _____    ______ ____
ROOT
ATOM      1  C   LIG    1       -3.002  -2.522  -1.353  0.00  0.00    -0.090 A 
ATOM      2  C   LIG    1       -3.748  -2.346  -0.193  0.00  0.00    -0.010 A 
ATOM      3  C   LIG    1       -4.958  -2.994  -0.048  0.00  0.00    +0.030 A 
ATOM      4  C   LIG    1       -5.429  -3.817  -1.054  0.00  0.00    -0.090 A 
ATOM      5  C   LIG    1       -4.691  -3.994  -2.210  0.00  0.00    +0.030 A 
ATOM      6  C   LIG    1       -3.482  -3.346  -2.365  0.00  0.00    +0.030 A 
ENDROOT
BRANCH   4   7
ATOM      7  C   LIG    1       -6.751  -4.523  -0.891  0.00  0.00    +0.050 C 
ATOM      8  C   LIG    1       -7.872  -3.638  -1.440  0.00  0.00    +0.030 C 
ENDBRANCH   4   7
BRANCH   1   9
ATOM      9  S   LIG    1       -1.457  -1.697  -1.543  0.00  0.00    -0.110 S 
BRANCH   9  10
ATOM     10  C   LIG    1       -1.293  -0.775   0.010  0.00  0.00    +0.110 C 
BRANCH  10  12
ATOM     11  C   LIG    1       -0.016   1.306   0.009  0.00  0.00    +0.050 C 
ATOM     12  C   LIG    1        0.002  -0.004   0.002  0.00  0.00    -0.030 C 
ENDBRANCH  10  12
ENDBRANCH   9  10
ENDBRANCH   1   9
TORSDOF 4
ENDMDL
MODEL       85
REMARK  Name = ZINC000095733121
REMARK                            x       y       z     vdW  Elec       q    Type
REMARK                         _______ _______ _______ _____ _____    ______ ____
ROOT
ATOM      1  C   LIG    1        3.074  -2.454   1.330  0.00  0.00    -0.090 A 
ATOM      2  C   LIG    1        3.814  -2.246   0.172  0.00  0.00    -0.020 A 
ATOM      3  C   LIG    1        5.042  -2.859   0.019  0.00  0.00    +0.030 A 
ATOM      4  C   LIG    1        5.535  -3.681   1.017  0.00  0.00    +0.000 A 
ATOM      5  C   LIG    1        4.801  -3.891   2.170  0.00  0.00    -0.070 A 
ATOM      6  C   LIG    1        5.343  -4.787   3.254  0.00  0.00    +0.090 C 
ATOM      7  C   LIG    1        3.576  -3.276   2.333  0.00  0.00    -0.070 A 
ATOM      8  C   LIG    1        2.777  -3.506   3.590  0.00  0.00    +0.110 C 
ENDROOT
BRANCH   1   9
ATOM      9  S   LIG    1        1.507  -1.674   1.529  0.00  0.00    -0.100 S 
BRANCH   9  10
ATOM     10  C   LIG    1        1.317  -0.740  -0.015  0.00  0.00    +0.100 C 
BRANCH  10  12
ATOM     11  C   LIG    1       -0.016   1.306   0.009  0.00  0.00    +0.050 C 
ATOM     12  C   LIG    1        0.002  -0.004   0.002  0.00  0.00    -0.030 C 
ENDBRANCH  10  12
ENDBRANCH   9  10
ENDBRANCH   1   9
TORSDOF 3
ENDMDL
MODEL       86
REMARK  Name = ZINC000095733110
REMARK                            x       y       z     vdW  Elec       q    Type
REMARK                         _______ _______ _______ _____ _____    ______ ____
ROOT
ATOM      1  C   LIG    1        3.074  -2.454   1.330  0.00  0.00    -0.090 A 
ATOM      2  C   LIG    1        3.812  -2.245   0.172  0.00  0.00    +0.010 A 
ATOM      3  C   LIG    1        5.040  -2.856   0.016  0.00  0.00    +0.050 A 
ATOM      4  C   LIG    1        5.538  -3.681   1.017  0.00  0.00    -0.090 A 
ATOM      5  C   LIG    1        4.800  -3.890   2.175  0.00  0.00    +0.020 A 
ATOM      6  C   LIG    1        3.574  -3.275   2.333  0.00  0.00    +0.050 A 
ENDROOT
BRANCH   4   7
ATOM      7  S   LIG    1        7.104  -4.462   0.817  0.00  0.00    -0.110 S 
ATOM      8  C   LIG    1        7.291  -5.402   2.357  0.00  0.00    +0.140 C 
ENDBRANCH   4   7
BRANCH   1   9
ATOM      9  S   LIG    1        1.507  -1.674   1.529  0.00  0.00    -0.110 S 
BRANCH   9  10
ATOM     10  C   LIG    1        1.317  -0.740  -0.015  0.00  0.00    +0.110 C 
BRANCH  10  12
ATOM     11  C   LIG    1       -0.016   1.306   0.009  0.00  0.00    +0.050 C 
ATOM     12  C   LIG    1        0.002  -0.004   0.002  0.00  0.00    -0.030 C 
ENDBRANCH  10  12
ENDBRANCH   9  10
ENDBRANCH   1   9
TORSDOF 4
ENDMDL
MODEL       87
REMARK  Name = ZINC000095733107
REMARK                            x       y       z     vdW  Elec       q    Type
REMARK                         _______ _______ _______ _____ _____    ______ ____
ROOT
ATOM      1  C   LIG    1       -3.002  -2.522  -1.353  0.00  0.00    -0.070 A 
ATOM      2  C   LIG    1       -3.747  -2.346  -0.192  0.00  0.00    -0.010 A 
ATOM      3  C   LIG    1       -4.959  -2.992  -0.042  0.00  0.00    +0.050 A 
ATOM      4  C   LIG    1       -5.435  -3.815  -1.044  0.00  0.00    -0.010 A 
ATOM      5  C   LIG    1       -4.696  -3.996  -2.208  0.00  0.00    -0.070 A 
ATOM      6  C   LIG    1       -3.481  -3.345  -2.364  0.00  0.00    +0.050 A 
ENDROOT
BRANCH   5   7
ATOM      7  S   LIG    1       -5.304  -5.047  -3.485  0.00  0.00    -0.110 S 
ATOM      8  C   LIG    1       -6.883  -5.634  -2.812  0.00  0.00    +0.140 C 
ENDBRANCH   5   7
BRANCH   1   9
ATOM      9  S   LIG    1       -1.457  -1.697  -1.543  0.00  0.00    -0.100 S 
BRANCH   9  10
ATOM     10  C   LIG    1       -1.293  -0.775   0.010  0.00  0.00    +0.110 C 
BRANCH  10  12
ATOM     11  C   LIG    1       -0.016   1.306   0.009  0.00  0.00    +0.050 C 
ATOM     12  C   LIG    1        0.002  -0.004   0.002  0.00  0.00    -0.030 C 
ENDBRANCH  10  12
ENDBRANCH   9  10
ENDBRANCH   1   9
TORSDOF 4
ENDMDL
MODEL       88
REMARK  Name = ZINC000104216022
REMARK                            x       y       z     vdW  Elec       q    Type
REMARK                         _______ _______ _______ _____ _____    ______ ____
ROOT
ATOM      1  C   LIG    1        1.950  -2.862  -3.394  0.00  0.00    -0.100 C 
ATOM      2  C   LIG    1        1.012  -3.575  -4.371  0.00  0.00    +0.260 C 
ATOM      3  C   LIG    1        2.520  -3.555  -4.634  0.00  0.00    +0.020 C 
ATOM      4  C   LIG    1        3.290  -4.860  -4.423  0.00  0.00    +0.080 C 
ENDROOT
BRANCH   1   5
ATOM      5  C   LIG    1        1.932  -1.332  -3.386  0.00  0.00    +0.200 C 
BRANCH   5   7
ATOM      6  C   LIG    1        4.416  -0.420  -3.397  0.00  0.00    -0.180 C 
ATOM      7  C   LIG    1        3.314  -0.825  -3.393  0.00  0.00    -0.190 C 
BRANCH   6   9
ATOM      8  C   LIG    1        5.779   1.617  -3.396  0.00  0.00    +0.040 C 
ATOM      9  C   LIG    1        5.798   0.087  -3.404  0.00  0.00    +0.160 C 
ENDBRANCH   6   9
ENDBRANCH   5   7
ENDBRANCH   1   5
BRANCH   1  10
ATOM     10  C   LIG    1        2.196  -3.526  -2.038  0.00  0.00    +0.030 C 
BRANCH  10  11
ATOM     11  C   LIG    1        1.072  -3.229  -1.135  0.00  0.00    +0.030 C 
ATOM     12  C   LIG    1        0.175  -2.991  -0.415  0.00  0.00    -0.450 C 
BRANCH  12  13
ATOM     13  C   LIG    1       -0.949  -2.694   0.487  0.00  0.00    -0.000 C 
ATOM     14  C   LIG    1       -0.703  -3.358   1.844  0.00  0.00    +0.110 C 
ENDBRANCH  12  13
ENDBRANCH  10  11
ENDBRANCH   1  10
TORSDOF 6
ENDMDL
MODEL       89
REMARK  Name = ZINC000095732230
REMARK                            x       y       z     vdW  Elec       q    Type
REMARK                         _______ _______ _______ _____ _____    ______ ____
ROOT
ATOM      1  C   LIG    1        1.369  -1.702   1.144  0.00  0.00    -0.110 A 
ATOM      2  C   LIG    1        1.966  -1.324   2.331  0.00  0.00    +0.050 A 
ATOM      3  C   LIG    1        2.014  -2.208   3.394  0.00  0.00    -0.120 A 
ATOM      4  C   LIG    1        1.465  -3.470   3.272  0.00  0.00    +0.040 A 
ATOM      5  C   LIG    1        0.866  -3.853   2.087  0.00  0.00    -0.070 A 
ATOM      6  C   LIG    1        2.666  -1.792   4.688  0.00  0.00    +0.090 C 
ATOM      7  C   LIG    1        0.812  -2.967   1.021  0.00  0.00    +0.130 A 
ENDROOT
BRANCH   1   8
ATOM      8  C   LIG    1        1.317  -0.740  -0.015  0.00  0.00    +0.110 C 
BRANCH   8  10
ATOM      9  C   LIG    1       -0.016   1.306   0.009  0.00  0.00    +0.000 C 
ATOM     10  C   LIG    1        0.002  -0.004   0.002  0.00  0.00    -0.030 C 
ENDBRANCH   8  10
ENDBRANCH   1   8
BRANCH   7  11
ATOM     11  O   LIG    1        0.224  -3.341  -0.146  0.00  0.00    -0.310 OA
BRANCH  11  12
ATOM     12  C   LIG    1       -0.318  -4.662  -0.205  0.00  0.00    +0.180 C 
BRANCH  12  13
ATOM     13  C   LIG    1       -0.934  -4.900  -1.585  0.00  0.00    +0.020 C 
ATOM     14  C   LIG    1       -1.514  -6.314  -1.648  0.00  0.00    +0.040 C 
ENDBRANCH  12  13
ENDBRANCH  11  12
ENDBRANCH   7  11
TORSDOF 5
ENDMDL
MODEL       90
REMARK  Name = ZINC000016639390
REMARK                            x       y       z     vdW  Elec       q    Type
REMARK                         _______ _______ _______ _____ _____    ______ ____
ROOT
ATOM      1  C   LIG    1        2.757  -3.441   2.321  0.00  0.00    +0.080 C 
ENDROOT
BRANCH   1   2
ATOM      2  C   LIG    1        2.705  -2.464   1.145  0.00  0.00    +0.040 C 
BRANCH   2   3
ATOM      3  C   LIG    1        1.370  -1.717   1.161  0.00  0.00    +0.030 C 
BRANCH   3   4
ATOM      4  C   LIG    1        1.317  -0.740  -0.015  0.00  0.00    +0.040 C 
BRANCH   4   6
ATOM      5  C   LIG    1       -0.016   1.306   0.009  0.00  0.00    +0.010 C 
ATOM      6  C   LIG    1        0.002  -0.004   0.002  0.00  0.00    -0.050 C 
ENDBRANCH   4   6
ENDBRANCH   3   4
ENDBRANCH   2   3
ENDBRANCH   1   2
BRANCH   1   7
ATOM      7  S   LIG    1        4.340  -4.327   2.301  0.00  0.00    -0.270 S 
BRANCH   7   8
ATOM      8  C   LIG    1        4.215  -5.419   3.744  0.00  0.00    +0.080 C 
BRANCH   8   9
ATOM      9  C   LIG    1        5.495  -6.248   3.869  0.00  0.00    +0.040 C 
BRANCH   9  10
ATOM     10  C   LIG    1        5.390  -7.169   5.086  0.00  0.00    +0.000 C 
ATOM     11  C   LIG    1        6.670  -7.998   5.210  0.00  0.00    +0.030 C 
ENDBRANCH   9  10
ENDBRANCH   8   9
ENDBRANCH   7   8
ENDBRANCH   1   7
TORSDOF 8
ENDMDL
MODEL       91
REMARK  Name = ZINC000095902372
REMARK                            x       y       z     vdW  Elec       q    Type
REMARK                         _______ _______ _______ _____ _____    ______ ____
ROOT
ATOM      1  C   LIG    1       -1.318  -1.726  -1.159  0.00  0.00    -0.080 A 
ATOM      2  C   LIG    1       -1.833  -1.314  -2.373  0.00  0.00    +0.010 A 
ATOM      3  C   LIG    1       -1.857  -2.187  -3.446  0.00  0.00    +0.010 A 
ATOM      4  C   LIG    1       -1.365  -3.471  -3.303  0.00  0.00    -0.080 A 
ATOM      5  C   LIG    1       -0.849  -3.882  -2.088  0.00  0.00    +0.000 A 
ATOM      6  C   LIG    1       -0.822  -3.009  -1.017  0.00  0.00    +0.010 A 
ENDROOT
BRANCH   1   7
ATOM      7  C   LIG    1       -1.293  -0.775   0.010  0.00  0.00    +0.100 C 
BRANCH   7   9
ATOM      8  C   LIG    1       -0.016   1.306   0.009  0.00  0.00    +0.010 C 
ATOM      9  C   LIG    1        0.002  -0.004   0.002  0.00  0.00    -0.040 C 
ENDBRANCH   7   9
ENDBRANCH   1   7
BRANCH   4  10
ATOM     10  C   LIG    1       -1.391  -4.422  -4.472  0.00  0.00    +0.060 C 
BRANCH  10  11
ATOM     11  C   LIG    1       -0.092  -4.287  -5.268  0.00  0.00    -0.020 C 
ATOM     12  C   LIG    1       -0.014  -2.889  -5.885  0.00  0.00    +0.010 C 
ATOM     13  C   LIG    1       -0.064  -5.338  -6.380  0.00  0.00    +0.020 C 
ENDBRANCH  10  11
ENDBRANCH   4  10
TORSDOF 4
ENDMDL
MODEL       92
REMARK  Name = ZINC000095902340
REMARK                            x       y       z     vdW  Elec       q    Type
REMARK                         _______ _______ _______ _____ _____    ______ ____
ROOT
ATOM      1  C   LIG    1        1.369  -1.702   1.144  0.00  0.00    -0.060 A 
ATOM      2  C   LIG    1        1.873  -1.290   2.363  0.00  0.00    +0.020 A 
ATOM      3  C   LIG    1        1.920  -2.172   3.426  0.00  0.00    -0.070 A 
ATOM      4  C   LIG    1        1.464  -3.469   3.269  0.00  0.00    -0.050 A 
ATOM      5  C   LIG    1        0.960  -3.881   2.048  0.00  0.00    -0.070 A 
ATOM      6  C   LIG    1        0.461  -5.293   1.877  0.00  0.00    +0.100 C 
ATOM      7 CL   LIG    1        1.523  -4.578   4.604  0.00  0.00    -0.070 Cl
ATOM      8  C   LIG    1        2.469  -1.722   4.755  0.00  0.00    +0.100 C 
ATOM      9  C   LIG    1        0.907  -2.996   0.988  0.00  0.00    +0.020 A 
ENDROOT
BRANCH   1  10
ATOM     10  C   LIG    1        1.317  -0.740  -0.015  0.00  0.00    +0.110 C 
BRANCH  10  12
ATOM     11  C   LIG    1       -0.016   1.306   0.009  0.00  0.00    +0.010 C 
ATOM     12  C   LIG    1        0.002  -0.004   0.002  0.00  0.00    -0.040 C 
ENDBRANCH  10  12
ENDBRANCH   1  10
TORSDOF 2
ENDMDL
MODEL       93
REMARK  Name = ZINC000095902365
REMARK                            x       y       z     vdW  Elec       q    Type
REMARK                         _______ _______ _______ _____ _____    ______ ____
ROOT
ATOM      1  C   LIG    1        1.369  -1.702   1.144  0.00  0.00    -0.070 A 
ATOM      2  C   LIG    1        0.811  -2.986   1.020  0.00  0.00    -0.020 A 
ATOM      3  C   LIG    1        0.196  -3.402  -0.173  0.00  0.00    +0.020 A 
ATOM      4  C   LIG    1       -0.333  -4.653  -0.257  0.00  0.00    +0.020 A 
ATOM      5  C   LIG    1       -0.276  -5.531   0.824  0.00  0.00    +0.020 A 
ATOM      6  C   LIG    1        0.311  -5.162   1.995  0.00  0.00    +0.030 A 
ATOM      7  C   LIG    1        0.869  -3.878   2.119  0.00  0.00    -0.080 A 
ATOM      8  C   LIG    1        1.485  -3.461   3.314  0.00  0.00    +0.110 A 
ATOM      9  C   LIG    1        2.015  -2.208   3.396  0.00  0.00    -0.010 A 
ATOM     10  F   LIG    1        1.550  -4.298   4.373  0.00  0.00    -0.130 F 
ATOM     11  C   LIG    1        1.961  -1.334   2.313  0.00  0.00    +0.040 A 
ENDROOT
BRANCH   1  12
ATOM     12  C   LIG    1        1.317  -0.740  -0.015  0.00  0.00    +0.110 C 
BRANCH  12  14
ATOM     13  C   LIG    1       -0.016   1.306   0.009  0.00  0.00    +0.010 C 
ATOM     14  C   LIG    1        0.002  -0.004   0.002  0.00  0.00    -0.040 C 
ENDBRANCH  12  14
ENDBRANCH   1  12
TORSDOF 2
ENDMDL
MODEL       94
REMARK  Name = ZINC000095631358
REMARK                            x       y       z     vdW  Elec       q    Type
REMARK                         _______ _______ _______ _____ _____    ______ ____
ROOT
ATOM      1  C   LIG    1       -1.318  -1.726  -1.159  0.00  0.00    -0.070 A 
ATOM      2  C   LIG    1       -1.833  -1.314  -2.373  0.00  0.00    +0.020 A 
ATOM      3  C   LIG    1       -1.857  -2.186  -3.446  0.00  0.00    +0.030 A 
ATOM      4  C   LIG    1       -1.365  -3.471  -3.303  0.00  0.00    -0.040 A 
ATOM      5  C   LIG    1       -0.849  -3.883  -2.087  0.00  0.00    -0.070 A 
ATOM      6 CL   LIG    1       -1.393  -4.566  -4.650  0.00  0.00    -0.070 Cl
ATOM      7  C   LIG    1       -0.822  -3.009  -1.017  0.00  0.00    +0.030 A 
ENDROOT
BRANCH   5   8
ATOM      8  C   LIG    1       -0.313  -5.282  -1.931  0.00  0.00    +0.070 C 
ATOM      9  C   LIG    1       -1.476  -6.254  -1.724  0.00  0.00    +0.030 C 
ENDBRANCH   5   8
BRANCH   1  10
ATOM     10  C   LIG    1       -1.293  -0.775   0.010  0.00  0.00    +0.100 C 
BRANCH  10  12
ATOM     11  C   LIG    1       -0.016   1.306   0.009  0.00  0.00    +0.010 C 
ATOM     12  C   LIG    1        0.002  -0.004   0.002  0.00  0.00    -0.040 C 
ENDBRANCH  10  12
ENDBRANCH   1  10
TORSDOF 3
ENDMDL
MODEL       95
REMARK  Name = ZINC000095732218
REMARK                            x       y       z     vdW  Elec       q    Type
REMARK                         _______ _______ _______ _____ _____    ______ ____
ROOT
ATOM      1  C   LIG    1       -1.318  -1.726  -1.159  0.00  0.00    -0.040 A 
ATOM      2  C   LIG    1       -1.833  -1.314  -2.373  0.00  0.00    -0.030 A 
ATOM      3  C   LIG    1       -1.858  -2.184  -3.448  0.00  0.00    +0.050 A 
ATOM      4  C   LIG    1       -1.369  -3.468  -3.310  0.00  0.00    -0.120 A 
ATOM      5  C   LIG    1       -0.851  -3.884  -2.091  0.00  0.00    +0.130 A 
ATOM      6  C   LIG    1       -1.396  -4.416  -4.481  0.00  0.00    +0.090 C 
ATOM      7  C   LIG    1       -0.822  -3.008  -1.017  0.00  0.00    -0.070 A 
ENDROOT
BRANCH   1   8
ATOM      8  C   LIG    1       -1.293  -0.775   0.010  0.00  0.00    +0.100 C 
BRANCH   8  10
ATOM      9  C   LIG    1       -0.016   1.306   0.009  0.00  0.00    +0.010 C 
ATOM     10  C   LIG    1        0.002  -0.004   0.002  0.00  0.00    -0.040 C 
ENDBRANCH   8  10
ENDBRANCH   1   8
BRANCH   5  11
ATOM     11  O   LIG    1       -0.368  -5.147  -1.953  0.00  0.00    -0.310 OA
BRANCH  11  12
ATOM     12  C   LIG    1        0.149  -5.507  -0.670  0.00  0.00    +0.180 C 
BRANCH  12  13
ATOM     13  C   LIG    1        0.643  -6.954  -0.708  0.00  0.00    +0.020 C 
ATOM     14  C   LIG    1        1.197  -7.340   0.666  0.00  0.00    +0.040 C 
ENDBRANCH  12  13
ENDBRANCH  11  12
ENDBRANCH   5  11
TORSDOF 5
ENDMDL
MODEL       96
REMARK  Name = ZINC000001575192
REMARK                            x       y       z     vdW  Elec       q    Type
REMARK                         _______ _______ _______ _____ _____    ______ ____
ROOT
ATOM      1  C   LIG    1        1.950  -2.862  -3.394  0.00  0.00    -0.100 C 
ATOM      2  C   LIG    1        1.216  -3.679  -4.459  0.00  0.00    +0.150 C 
ATOM      3  C   LIG    1        2.716  -3.412  -4.599  0.00  0.00    -0.070 C 
ATOM      4  C   LIG    1        3.158  -2.414  -5.672  0.00  0.00    +0.070 C 
ENDROOT
BRANCH   1   5
ATOM      5  C   LIG    1        1.686  -1.355  -3.353  0.00  0.00    +0.220 C 
BRANCH   5   7
ATOM      6  C   LIG    1        0.151  -0.786  -1.274  0.00  0.00    -0.180 C 
ATOM      7  C   LIG    1        0.832  -1.039  -2.197  0.00  0.00    -0.180 C 
BRANCH   6   9
ATOM      8  C   LIG    1       -0.967   1.038  -0.077  0.00  0.00    +0.030 C 
ATOM      9  C   LIG    1       -0.702  -0.469  -0.118  0.00  0.00    +0.160 C 
ENDBRANCH   6   9
ENDBRANCH   5   7
ENDBRANCH   1   5
BRANCH   1  10
ATOM     10  C   LIG    1        2.196  -3.526  -2.038  0.00  0.00    +0.050 C 
BRANCH  10  11
ATOM     11  C   LIG    1        3.444  -3.006  -1.456  0.00  0.00    -0.030 C 
ATOM     12  C   LIG    1        4.439  -2.591  -0.992  0.00  0.00    -0.070 C 
BRANCH  12  13
ATOM     13  C   LIG    1        5.687  -2.070  -0.409  0.00  0.00    -0.080 C 
ATOM     14  C   LIG    1        5.933  -2.735   0.947  0.00  0.00    +0.020 C 
ENDBRANCH  12  13
ENDBRANCH  10  11
ENDBRANCH   1  10
TORSDOF 6
ENDMDL
MODEL       97
REMARK  Name = ZINC000001685155
REMARK                            x       y       z     vdW  Elec       q    Type
REMARK                         _______ _______ _______ _____ _____    ______ ____
ROOT
ATOM      1  C   LIG    1       -2.613  -2.512  -1.168  0.00  0.00    -0.090 C 
ATOM      2  C   LIG    1       -3.640  -2.092  -1.894  0.00  0.00    +0.040 C 
ENDROOT
BRANCH   1   3
ATOM      3  C   LIG    1       -2.739  -3.737  -0.351  0.00  0.00    -0.050 A 
ATOM      4  C   LIG    1       -2.675  -3.660   1.041  0.00  0.00    +0.010 A 
ATOM      5  C   LIG    1       -2.793  -4.807   1.798  0.00  0.00    +0.000 A 
ATOM      6  C   LIG    1       -2.974  -6.032   1.181  0.00  0.00    +0.000 A 
ATOM      7  C   LIG    1       -3.039  -6.115  -0.199  0.00  0.00    +0.000 A 
ATOM      8  C   LIG    1       -2.927  -4.974  -0.967  0.00  0.00    +0.010 A 
ENDBRANCH   1   3
BRANCH   1   9
ATOM      9  C   LIG    1       -1.319  -1.741  -1.176  0.00  0.00    +0.060 C 
BRANCH   9  10
ATOM     10  C   LIG    1       -1.293  -0.775   0.010  0.00  0.00    +0.050 C 
BRANCH  10  12
ATOM     11  C   LIG    1       -0.016   1.306   0.009  0.00  0.00    +0.010 C 
ATOM     12  C   LIG    1        0.002  -0.004   0.002  0.00  0.00    -0.050 C 
ENDBRANCH  10  12
ENDBRANCH   9  10
ENDBRANCH   1   9
TORSDOF 4
ENDMDL
MODEL       98
REMARK  Name = ZINC000095731213
REMARK                            x       y       z     vdW  Elec       q    Type
REMARK                         _______ _______ _______ _____ _____    ______ ____
ROOT
ATOM      1  C   LIG    1       -1.318  -1.726  -1.159  0.00  0.00    -0.060 A 
ATOM      2  C   LIG    1       -1.834  -1.313  -2.374  0.00  0.00    +0.000 A 
ATOM      3  C   LIG    1       -1.859  -2.183  -3.449  0.00  0.00    +0.030 A 
ATOM      4  C   LIG    1       -1.369  -3.466  -3.313  0.00  0.00    -0.020 A 
ATOM      5  C   LIG    1       -0.851  -3.885  -2.093  0.00  0.00    -0.080 A 
ATOM      6  C   LIG    1       -0.822  -3.007  -1.016  0.00  0.00    +0.030 A 
ENDROOT
BRANCH   1   7
ATOM      7  C   LIG    1       -1.293  -0.775   0.010  0.00  0.00    +0.100 C 
BRANCH   7   9
ATOM      8  C   LIG    1       -0.016   1.306   0.009  0.00  0.00    +0.010 C 
ATOM      9  C   LIG    1        0.002  -0.004   0.002  0.00  0.00    -0.040 C 
ENDBRANCH   7   9
ENDBRANCH   1   7
BRANCH   5  10
ATOM     10  S   LIG    1       -0.225  -5.522  -1.915  0.00  0.00    -0.120 S 
BRANCH  10  11
ATOM     11  C   LIG    1       -0.478  -6.238  -3.563  0.00  0.00    +0.070 C 
BRANCH  11  12
ATOM     12  C   LIG    1        0.023  -7.683  -3.574  0.00  0.00    +0.030 C 
ATOM     13  C   LIG    1       -0.191  -8.287  -4.963  0.00  0.00    +0.030 C 
ENDBRANCH  11  12
ENDBRANCH  10  11
ENDBRANCH   5  10
TORSDOF 5
ENDMDL
MODEL       99
REMARK  Name = ZINC000095902338
REMARK                            x       y       z     vdW  Elec       q    Type
REMARK                         _______ _______ _______ _____ _____    ______ ____
ROOT
ATOM      1  C   LIG    1       -1.318  -1.726  -1.159  0.00  0.00    -0.080 A 
ATOM      2  C   LIG    1       -1.833  -1.314  -2.373  0.00  0.00    +0.000 A 
ATOM      3  C   LIG    1       -1.857  -2.187  -3.446  0.00  0.00    +0.000 A 
ATOM      4  C   LIG    1       -1.365  -3.471  -3.303  0.00  0.00    +0.000 A 
ATOM      5  C   LIG    1       -0.849  -3.882  -2.088  0.00  0.00    -0.070 A 
ATOM      6  C   LIG    1       -0.822  -3.009  -1.017  0.00  0.00    +0.010 A 
ENDROOT
BRANCH   5   7
ATOM      7  C   LIG    1       -0.314  -5.282  -1.932  0.00  0.00    -0.030 C 
ATOM      8  C   LIG    1       -1.103  -6.012  -0.844  0.00  0.00    +0.040 C 
ATOM      9  C   LIG    1        1.164  -5.222  -1.538  0.00  0.00    +0.040 C 
ATOM     10  C   LIG    1       -0.458  -6.034  -3.257  0.00  0.00    +0.030 C 
ENDBRANCH   5   7
BRANCH   1  11
ATOM     11  C   LIG    1       -1.293  -0.775   0.010  0.00  0.00    +0.100 C 
BRANCH  11  13
ATOM     12  C   LIG    1       -0.016   1.306   0.009  0.00  0.00    +0.010 C 
ATOM     13  C   LIG    1        0.002  -0.004   0.002  0.00  0.00    -0.040 C 
ENDBRANCH  11  13
ENDBRANCH   1  11
TORSDOF 3
ENDMDL
MODEL      100
REMARK  Name = ZINC000043505139
REMARK                            x       y       z     vdW  Elec       q    Type
REMARK                         _______ _______ _______ _____ _____    ______ ____
ROOT
ATOM      1  C   LIG    1       -1.318  -1.726  -1.159  0.00  0.00    -0.090 A 
ATOM      2  C   LIG    1       -1.840  -1.300  -2.378  0.00  0.00    +0.020 A 
ATOM      3  C   LIG    1       -1.877  -2.134  -3.454  0.00  0.00    +0.020 A 
ATOM      4  C   LIG    1       -1.383  -3.444  -3.335  0.00  0.00    -0.020 A 
ATOM      5  C   LIG    1       -1.405  -4.332  -4.424  0.00  0.00    -0.020 A 
ATOM      6  C   LIG    1       -0.917  -5.598  -4.272  0.00  0.00    +0.130 A 
ATOM      7  C   LIG    1       -0.394  -6.023  -3.046  0.00  0.00    -0.060 A 
ATOM      8  C   LIG    1       -0.358  -5.188  -1.974  0.00  0.00    +0.060 A 
ATOM      9  C   LIG    1       -0.853  -3.878  -2.094  0.00  0.00    -0.080 A 
ATOM     10  C   LIG    1       -0.827  -2.987  -1.008  0.00  0.00    +0.040 A 
ENDROOT
BRANCH   6  11
ATOM     11  O   LIG    1       -0.938  -6.456  -5.325  0.00  0.00    -0.320 OA
ATOM     12  C   LIG    1       -0.413  -7.767  -5.106  0.00  0.00    +0.250 C 
ENDBRANCH   6  11
BRANCH   1  13
ATOM     13  C   LIG    1       -1.293  -0.775   0.010  0.00  0.00    +0.100 C 
BRANCH  13  15
ATOM     14  C   LIG    1       -0.016   1.306   0.009  0.00  0.00    +0.010 C 
ATOM     15  C   LIG    1        0.002  -0.004   0.002  0.00  0.00    -0.040 C 
ENDBRANCH  13  15
ENDBRANCH   1  13
TORSDOF 3
ENDMDL
MODEL      101
REMARK  Name = ZINC000095730458
REMARK                            x       y       z     vdW  Elec       q    Type
REMARK                         _______ _______ _______ _____ _____    ______ ____
ROOT
ATOM      1  C   LIG    1       -1.318  -1.726  -1.159  0.00  0.00    -0.120 A 
ATOM      2  C   LIG    1       -1.926  -1.349  -2.341  0.00  0.00    +0.050 A 
ATOM      3  C   LIG    1       -1.951  -2.219  -3.415  0.00  0.00    -0.080 A 
ATOM      4  C   LIG    1       -1.365  -3.471  -3.304  0.00  0.00    +0.130 A 
ATOM      5  C   LIG    1       -0.755  -3.847  -2.116  0.00  0.00    -0.020 A 
ATOM      6  C   LIG    1       -0.729  -2.972  -1.048  0.00  0.00    -0.040 A 
ATOM      7  C   LIG    1       -0.066  -3.380   0.243  0.00  0.00    +0.090 C 
ENDROOT
BRANCH   1   8
ATOM      8  C   LIG    1       -1.293  -0.775   0.010  0.00  0.00    +0.100 C 
BRANCH   8  10
ATOM      9  C   LIG    1       -0.016   1.306   0.009  0.00  0.00    +0.010 C 
ATOM     10  C   LIG    1        0.002  -0.004   0.002  0.00  0.00    -0.040 C 
ENDBRANCH   8  10
ENDBRANCH   1   8
BRANCH   4  11
ATOM     11  O   LIG    1       -1.387  -4.329  -4.359  0.00  0.00    -0.320 OA
BRANCH  11  12
ATOM     12  C   LIG    1       -2.031  -3.875  -5.551  0.00  0.00    +0.180 C 
BRANCH  12  13
ATOM     13  C   LIG    1       -1.957  -4.967  -6.619  0.00  0.00    +0.020 C 
ATOM     14  C   LIG    1       -2.647  -4.481  -7.895  0.00  0.00    +0.040 C 
ENDBRANCH  12  13
ENDBRANCH  11  12
ENDBRANCH   4  11
TORSDOF 5
ENDMDL
MODEL      102
REMARK  Name = ZINC000095730408
REMARK                            x       y       z     vdW  Elec       q    Type
REMARK                         _______ _______ _______ _____ _____    ______ ____
ROOT
ATOM      1  C   LIG    1       -1.318  -1.726  -1.159  0.00  0.00    -0.040 A 
ATOM      2  C   LIG    1       -1.833  -1.314  -2.373  0.00  0.00    -0.030 A 
ATOM      3  C   LIG    1       -1.858  -2.184  -3.448  0.00  0.00    +0.050 A 
ATOM      4  C   LIG    1       -1.369  -3.468  -3.310  0.00  0.00    -0.080 A 
ATOM      5  C   LIG    1       -0.851  -3.884  -2.091  0.00  0.00    +0.130 A 
ATOM      6  C   LIG    1       -0.822  -3.008  -1.017  0.00  0.00    -0.020 A 
ENDROOT
BRANCH   1   7
ATOM      7  C   LIG    1       -1.293  -0.775   0.010  0.00  0.00    +0.100 C 
BRANCH   7   9
ATOM      8  C   LIG    1       -0.016   1.306   0.009  0.00  0.00    +0.010 C 
ATOM      9  C   LIG    1        0.002  -0.004   0.002  0.00  0.00    -0.040 C 
ENDBRANCH   7   9
ENDBRANCH   1   7
BRANCH   5  10
ATOM     10  O   LIG    1       -0.368  -5.147  -1.953  0.00  0.00    -0.320 OA
BRANCH  10  11
ATOM     11  C   LIG    1       -0.424  -5.993  -3.103  0.00  0.00    +0.180 C 
BRANCH  11  12
ATOM     12  C   LIG    1        0.160  -7.364  -2.757  0.00  0.00    +0.020 C 
BRANCH  12  13
ATOM     13  C   LIG    1        0.100  -8.270  -3.989  0.00  0.00    +0.000 C 
ATOM     14  C   LIG    1        0.684  -9.641  -3.643  0.00  0.00    +0.030 C 
ENDBRANCH  12  13
ENDBRANCH  11  12
ENDBRANCH  10  11
ENDBRANCH   5  10
TORSDOF 6
ENDMDL
MODEL      103
REMARK  Name = ZINC000043505090
REMARK                            x       y       z     vdW  Elec       q    Type
REMARK                         _______ _______ _______ _____ _____    ______ ____
ROOT
ATOM      1  C   LIG    1        1.369  -1.702   1.144  0.00  0.00    -0.120 A 
ATOM      2  C   LIG    1        1.873  -1.289   2.363  0.00  0.00    +0.060 A 
ATOM      3  C   LIG    1        1.921  -2.169   3.426  0.00  0.00    -0.020 A 
ATOM      4  C   LIG    1        1.463  -3.470   3.270  0.00  0.00    +0.130 A 
ATOM      5  C   LIG    1        0.958  -3.882   2.046  0.00  0.00    -0.080 A 
ATOM      6  C   LIG    1        0.907  -2.996   0.987  0.00  0.00    +0.040 A 
ENDROOT
BRANCH   1   7
ATOM      7  C   LIG    1        1.317  -0.740  -0.015  0.00  0.00    +0.110 C 
BRANCH   7   9
ATOM      8  C   LIG    1       -0.016   1.306   0.009  0.00  0.00    +0.010 C 
ATOM      9  C   LIG    1        0.002  -0.004   0.002  0.00  0.00    -0.040 C 
ENDBRANCH   7   9
ENDBRANCH   1   7
BRANCH   4  10
ATOM     10  O   LIG    1        1.509  -4.338   4.315  0.00  0.00    -0.320 OA
BRANCH  10  11
ATOM     11  C   LIG    1        1.021  -5.660   4.082  0.00  0.00    +0.180 C 
BRANCH  11  12
ATOM     12  C   LIG    1        1.153  -6.486   5.363  0.00  0.00    +0.020 C 
BRANCH  12  13
ATOM     13  C   LIG    1        0.629  -7.902   5.113  0.00  0.00    +0.000 C 
ATOM     14  C   LIG    1        0.761  -8.728   6.394  0.00  0.00    +0.030 C 
ENDBRANCH  12  13
ENDBRANCH  11  12
ENDBRANCH  10  11
ENDBRANCH   4  10
TORSDOF 6
ENDMDL
MODEL      104
REMARK  Name = ZINC000095731216
REMARK                            x       y       z     vdW  Elec       q    Type
REMARK                         _______ _______ _______ _____ _____    ______ ____
ROOT
ATOM      1  C   LIG    1       -1.318  -1.726  -1.159  0.00  0.00    -0.060 A 
ATOM      2  C   LIG    1       -1.925  -1.352  -2.341  0.00  0.00    +0.030 A 
ATOM      3  C   LIG    1       -1.950  -2.224  -3.414  0.00  0.00    +0.010 A 
ATOM      4  C   LIG    1       -1.367  -3.474  -3.307  0.00  0.00    +0.030 A 
ATOM      5  C   LIG    1       -0.758  -3.855  -2.128  0.00  0.00    -0.010 A 
ATOM      6  C   LIG    1       -0.726  -2.979  -1.049  0.00  0.00    -0.080 A 
ENDROOT
BRANCH   1   7
ATOM      7  C   LIG    1       -1.293  -0.775   0.010  0.00  0.00    +0.110 C 
BRANCH   7   9
ATOM      8  C   LIG    1       -0.016   1.306   0.009  0.00  0.00    +0.010 C 
ATOM      9  C   LIG    1        0.002  -0.004   0.002  0.00  0.00    -0.030 C 
ENDBRANCH   7   9
ENDBRANCH   1   7
BRANCH   6  10
ATOM     10  S   LIG    1        0.050  -3.461   0.457  0.00  0.00    -0.110 S 
BRANCH  10  11
ATOM     11  C   LIG    1        0.634  -5.140   0.097  0.00  0.00    +0.070 C 
BRANCH  11  12
ATOM     12  C   LIG    1        1.343  -5.709   1.328  0.00  0.00    +0.030 C 
ATOM     13  C   LIG    1        1.835  -7.125   1.024  0.00  0.00    +0.030 C 
ENDBRANCH  11  12
ENDBRANCH  10  11
ENDBRANCH   6  10
TORSDOF 5
ENDMDL
MODEL      105
REMARK  Name = ZINC000095731210
REMARK                            x       y       z     vdW  Elec       q    Type
REMARK                         _______ _______ _______ _____ _____    ______ ____
ROOT
ATOM      1  C   LIG    1       -1.318  -1.726  -1.159  0.00  0.00    -0.080 A 
ATOM      2  C   LIG    1       -1.834  -1.312  -2.373  0.00  0.00    +0.030 A 
ATOM      3  C   LIG    1       -1.859  -2.181  -3.447  0.00  0.00    +0.030 A 
ATOM      4  C   LIG    1       -1.365  -3.472  -3.305  0.00  0.00    -0.090 A 
ATOM      5  C   LIG    1       -0.847  -3.884  -2.083  0.00  0.00    -0.010 A 
ATOM      6  C   LIG    1       -0.821  -3.009  -1.015  0.00  0.00    +0.030 A 
ENDROOT
BRANCH   1   7
ATOM      7  C   LIG    1       -1.293  -0.775   0.010  0.00  0.00    +0.100 C 
BRANCH   7   9
ATOM      8  C   LIG    1       -0.016   1.306   0.009  0.00  0.00    +0.010 C 
ATOM      9  C   LIG    1        0.002  -0.004   0.002  0.00  0.00    -0.040 C 
ENDBRANCH   7   9
ENDBRANCH   1   7
BRANCH   4  10
ATOM     10  S   LIG    1       -1.394  -4.584  -4.672  0.00  0.00    -0.120 S 
BRANCH  10  11
ATOM     11  C   LIG    1       -0.658  -6.093  -3.986  0.00  0.00    +0.070 C 
BRANCH  11  12
ATOM     12  C   LIG    1       -0.610  -7.174  -5.068  0.00  0.00    +0.030 C 
ATOM     13  C   LIG    1        0.011  -8.447  -4.489  0.00  0.00    +0.030 C 
ENDBRANCH  11  12
ENDBRANCH  10  11
ENDBRANCH   4  10
TORSDOF 5
ENDMDL
MODEL      106
REMARK  Name = ZINC000095732176
REMARK                            x       y       z     vdW  Elec       q    Type
REMARK                         _______ _______ _______ _____ _____    ______ ____
ROOT
ATOM      1  C   LIG    1       -1.318  -1.726  -1.159  0.00  0.00    -0.110 A 
ATOM      2  C   LIG    1       -1.833  -1.313  -2.373  0.00  0.00    +0.040 A 
ATOM      3  C   LIG    1       -1.858  -2.183  -3.446  0.00  0.00    -0.070 A 
ATOM      4  C   LIG    1       -1.365  -3.472  -3.304  0.00  0.00    +0.130 A 
ATOM      5  C   LIG    1       -0.848  -3.884  -2.084  0.00  0.00    -0.110 A 
ATOM      6  C   LIG    1       -0.311  -5.283  -1.927  0.00  0.00    +0.090 C 
ATOM      7  C   LIG    1       -0.821  -3.009  -1.016  0.00  0.00    +0.050 A 
ENDROOT
BRANCH   1   8
ATOM      8  C   LIG    1       -1.293  -0.775   0.010  0.00  0.00    +0.110 C 
BRANCH   8  10
ATOM      9  C   LIG    1       -0.016   1.306   0.009  0.00  0.00    +0.010 C 
ATOM     10  C   LIG    1        0.002  -0.004   0.002  0.00  0.00    -0.040 C 
ENDBRANCH   8  10
ENDBRANCH   1   8
BRANCH   4  11
ATOM     11  O   LIG    1       -1.387  -4.329  -4.359  0.00  0.00    -0.310 OA
BRANCH  11  12
ATOM     12  C   LIG    1       -1.933  -3.836  -5.584  0.00  0.00    +0.180 C 
BRANCH  12  13
ATOM     13  C   LIG    1       -1.873  -4.935  -6.647  0.00  0.00    +0.020 C 
ATOM     14  C   LIG    1       -2.458  -4.407  -7.959  0.00  0.00    +0.040 C 
ENDBRANCH  12  13
ENDBRANCH  11  12
ENDBRANCH   4  11
TORSDOF 5
ENDMDL
MODEL      107
REMARK  Name = ZINC000095902374
REMARK                            x       y       z     vdW  Elec       q    Type
REMARK                         _______ _______ _______ _____ _____    ______ ____
ROOT
ATOM      1  C   LIG    1       -1.318  -1.726  -1.159  0.00  0.00    -0.080 A 
ATOM      2  C   LIG    1       -1.833  -1.314  -2.373  0.00  0.00    +0.000 A 
ATOM      3  C   LIG    1       -1.857  -2.187  -3.446  0.00  0.00    +0.010 A 
ATOM      4  C   LIG    1       -1.365  -3.471  -3.303  0.00  0.00    +0.000 A 
ATOM      5  C   LIG    1       -0.849  -3.882  -2.088  0.00  0.00    -0.070 A 
ATOM      6  C   LIG    1       -0.822  -3.009  -1.017  0.00  0.00    +0.000 A 
ENDROOT
BRANCH   5   7
ATOM      7  C   LIG    1       -0.314  -5.282  -1.932  0.00  0.00    +0.020 C 
ATOM      8  C   LIG    1        0.838  -5.500  -2.916  0.00  0.00    +0.040 C 
ATOM      9  C   LIG    1       -1.428  -6.290  -2.221  0.00  0.00    +0.040 C 
ENDBRANCH   5   7
BRANCH   1  10
ATOM     10  C   LIG    1       -1.293  -0.775   0.010  0.00  0.00    +0.100 C 
BRANCH  10  12
ATOM     11  C   LIG    1       -0.016   1.306   0.009  0.00  0.00    +0.010 C 
ATOM     12  C   LIG    1        0.002  -0.004   0.002  0.00  0.00    -0.040 C 
ENDBRANCH  10  12
ENDBRANCH   1  10
TORSDOF 3
ENDMDL
MODEL      108
REMARK  Name = ZINC000095730406
REMARK                            x       y       z     vdW  Elec       q    Type
REMARK                         _______ _______ _______ _____ _____    ______ ____
ROOT
ATOM      1  C   LIG    1        1.369  -1.702   1.144  0.00  0.00    -0.110 A 
ATOM      2  C   LIG    1        1.966  -1.324   2.331  0.00  0.00    +0.050 A 
ATOM      3  C   LIG    1        2.014  -2.208   3.394  0.00  0.00    -0.040 A 
ATOM      4  C   LIG    1        1.465  -3.470   3.272  0.00  0.00    +0.040 A 
ATOM      5  C   LIG    1        0.866  -3.853   2.087  0.00  0.00    -0.080 A 
ATOM      6  C   LIG    1        0.812  -2.967   1.021  0.00  0.00    +0.130 A 
ENDROOT
BRANCH   1   7
ATOM      7  C   LIG    1        1.317  -0.740  -0.015  0.00  0.00    +0.120 C 
BRANCH   7   9
ATOM      8  C   LIG    1       -0.016   1.306   0.009  0.00  0.00    +0.000 C 
ATOM      9  C   LIG    1        0.002  -0.004   0.002  0.00  0.00    -0.030 C 
ENDBRANCH   7   9
ENDBRANCH   1   7
BRANCH   6  10
ATOM     10  O   LIG    1        0.224  -3.341  -0.146  0.00  0.00    -0.310 OA
BRANCH  10  11
ATOM     11  C   LIG    1       -0.318  -4.662  -0.205  0.00  0.00    +0.180 C 
BRANCH  11  12
ATOM     12  C   LIG    1       -0.934  -4.900  -1.585  0.00  0.00    +0.020 C 
BRANCH  12  13
ATOM     13  C   LIG    1       -1.514  -6.314  -1.648  0.00  0.00    +0.000 C 
ATOM     14  C   LIG    1       -2.130  -6.552  -3.029  0.00  0.00    +0.030 C 
ENDBRANCH  12  13
ENDBRANCH  11  12
ENDBRANCH  10  11
ENDBRANCH   6  10
TORSDOF 6
ENDMDL
MODEL      109
REMARK  Name = ZINC000002012729
REMARK                            x       y       z     vdW  Elec       q    Type
REMARK                         _______ _______ _______ _____ _____    ______ ____
ROOT
ATOM      1  C   LIG    1       -1.912  -2.709   1.188  0.00  0.00    +0.000 C 
ENDROOT
BRANCH   1   2
ATOM      2  C   LIG    1       -1.103  -2.181   0.001  0.00  0.00    +0.040 C 
BRANCH   2   5
ATOM      3  C   LIG    1       -0.018   1.503   0.010  0.00  0.00    +0.050 C 
ATOM      4  C   LIG    1        0.002  -0.004   0.002  0.00  0.00    -0.050 C 
ATOM      5  C   LIG    1       -1.123  -0.674   0.009  0.00  0.00    -0.050 C 
ENDBRANCH   2   5
ENDBRANCH   1   2
BRANCH   1   6
ATOM      6  C   LIG    1       -1.891  -4.239   1.179  0.00  0.00    +0.000 C 
BRANCH   6   7
ATOM      7  C   LIG    1       -2.700  -4.766   2.366  0.00  0.00    +0.000 C 
BRANCH   7   8
ATOM      8  C   LIG    1       -2.680  -6.296   2.357  0.00  0.00    -0.010 C 
ATOM      9  C   LIG    1       -3.489  -6.824   3.544  0.00  0.00    +0.000 C 
ENDBRANCH   7   8
ENDBRANCH   6   7
ENDBRANCH   1   6
TORSDOF 5
ENDMDL
MODEL      110
REMARK  Name = ZINC000002242654
REMARK                            x       y       z     vdW  Elec       q    Type
REMARK                         _______ _______ _______ _____ _____    ______ ____
ROOT
ATOM      1  C   LIG    1        1.317  -0.740  -0.015  0.00  0.00    +0.020 C 
ATOM      2  C   LIG    1        1.422  -1.625   1.229  0.00  0.00    +0.020 C 
ATOM      3  C   LIG    1        2.757  -2.372   1.212  0.00  0.00    +0.010 C 
ATOM      4  C   LIG    1        2.838  -3.243  -0.043  0.00  0.00    +0.010 C 
ATOM      5  C   LIG    1        2.733  -2.358  -1.286  0.00  0.00    +0.040 C 
ATOM      6  C   LIG    1        1.398  -1.611  -1.269  0.00  0.00    +0.020 C 
ENDROOT
BRANCH   1   8
ATOM      7  C   LIG    1       -0.016   1.306   0.009  0.00  0.00    +0.000 C 
ATOM      8  C   LIG    1        0.002  -0.004   0.002  0.00  0.00    -0.030 C 
ENDBRANCH   1   8
BRANCH   4   9
ATOM      9  C   LIG    1        4.154  -3.979  -0.059  0.00  0.00    -0.040 C 
ATOM     10  C   LIG    1        4.171  -5.289  -0.066  0.00  0.00    +0.010 C 
ENDBRANCH   4   9
BRANCH   6  11
ATOM     11  C   LIG    1        1.295  -0.740  -2.494  0.00  0.00    -0.030 C 
ATOM     12  C   LIG    1        0.319  -0.923  -3.348  0.00  0.00    +0.000 C 
ENDBRANCH   6  11
TORSDOF 3
ENDMDL
MODEL      111
REMARK  Name = ZINC000049952228
REMARK                            x       y       z     vdW  Elec       q    Type
REMARK                         _______ _______ _______ _____ _____    ______ ____
ROOT
ATOM      1  C   LIG    1       -1.293  -0.775   0.010  0.00  0.00    +0.010 C 
ATOM      2  C   LIG    1       -1.374  -1.649  -1.243  0.00  0.00    +0.010 C 
ATOM      3  C   LIG    1       -0.197  -2.627  -1.260  0.00  0.00    +0.020 C 
ATOM      4  C   LIG    1       -0.255  -3.515  -0.014  0.00  0.00    +0.020 C 
ATOM      5  C   LIG    1       -0.174  -2.641   1.239  0.00  0.00    +0.030 C 
ATOM      6  C   LIG    1       -1.350  -1.663   1.255  0.00  0.00    +0.040 C 
ENDROOT
BRANCH   1   8
ATOM      7  C   LIG    1       -0.016   1.306   0.009  0.00  0.00    +0.010 C 
ATOM      8  C   LIG    1        0.002  -0.004   0.002  0.00  0.00    -0.040 C 
ENDBRANCH   1   8
BRANCH   5   9
ATOM      9  C   LIG    1       -0.230  -3.515   2.465  0.00  0.00    -0.030 C 
ATOM     10  C   LIG    1        0.764  -3.512   3.318  0.00  0.00    +0.000 C 
ENDBRANCH   5   9
BRANCH   4  11
ATOM     11  C   LIG    1        0.904  -4.478  -0.031  0.00  0.00    -0.030 C 
ATOM     12  C   LIG    1        0.682  -5.769  -0.035  0.00  0.00    +0.000 C 
ENDBRANCH   4  11
TORSDOF 3
ENDMDL
MODEL      112
REMARK  Name = ZINC000049952227
REMARK                            x       y       z     vdW  Elec       q    Type
REMARK                         _______ _______ _______ _____ _____    ______ ____
ROOT
ATOM      1  C   LIG    1        1.317  -0.740  -0.015  0.00  0.00    +0.030 C 
ATOM      2  C   LIG    1        1.422  -1.625   1.229  0.00  0.00    +0.020 C 
ATOM      3  C   LIG    1        2.757  -2.372   1.212  0.00  0.00    +0.010 C 
ATOM      4  C   LIG    1        2.838  -3.243  -0.043  0.00  0.00    +0.020 C 
ATOM      5  C   LIG    1        2.733  -2.358  -1.286  0.00  0.00    +0.040 C 
ATOM      6  C   LIG    1        1.398  -1.611  -1.269  0.00  0.00    +0.020 C 
ENDROOT
BRANCH   1   8
ATOM      7  C   LIG    1       -0.016   1.306   0.009  0.00  0.00    +0.000 C 
ATOM      8  C   LIG    1        0.002  -0.004   0.002  0.00  0.00    -0.040 C 
ENDBRANCH   1   8
BRANCH   4   9
ATOM      9  C   LIG    1        4.154  -3.979  -0.059  0.00  0.00    -0.040 C 
ATOM     10  C   LIG    1        4.171  -5.289  -0.066  0.00  0.00    +0.000 C 
ENDBRANCH   4   9
BRANCH   6  11
ATOM     11  C   LIG    1        0.266  -2.606  -1.264  0.00  0.00    -0.030 C 
ATOM     12  C   LIG    1       -0.610  -2.607  -2.238  0.00  0.00    +0.000 C 
ENDBRANCH   6  11
TORSDOF 3
ENDMDL
MODEL      113
REMARK  Name = ZINC000105101205
REMARK                            x       y       z     vdW  Elec       q    Type
REMARK                         _______ _______ _______ _____ _____    ______ ____
ROOT
ATOM      1  C   LIG    1        1.317  -0.740  -0.015  0.00  0.00    +0.020 C 
ATOM      2  C   LIG    1        1.422  -1.625   1.229  0.00  0.00    +0.030 C 
ATOM      3  C   LIG    1        2.757  -2.372   1.212  0.00  0.00    +0.010 C 
ATOM      4  C   LIG    1        2.838  -3.243  -0.043  0.00  0.00    +0.020 C 
ATOM      5  C   LIG    1        2.733  -2.358  -1.286  0.00  0.00    +0.020 C 
ATOM      6  C   LIG    1        1.398  -1.611  -1.269  0.00  0.00    +0.020 C 
ENDROOT
BRANCH   1   8
ATOM      7  C   LIG    1       -0.016   1.306   0.009  0.00  0.00    +0.000 C 
ATOM      8  C   LIG    1        0.002  -0.004   0.002  0.00  0.00    -0.040 C 
ENDBRANCH   1   8
BRANCH   3   9
ATOM      9  C   LIG    1        2.861  -3.244   2.437  0.00  0.00    -0.040 C 
ATOM     10  C   LIG    1        3.837  -3.060   3.291  0.00  0.00    +0.010 C 
ENDBRANCH   3   9
BRANCH   6  11
ATOM     11  C   LIG    1        0.266  -2.606  -1.264  0.00  0.00    -0.030 C 
ATOM     12  C   LIG    1       -0.610  -2.607  -2.238  0.00  0.00    -0.010 C 
ENDBRANCH   6  11
TORSDOF 3
ENDMDL
MODEL      114
REMARK  Name = ZINC000085388959
REMARK                            x       y       z     vdW  Elec       q    Type
REMARK                         _______ _______ _______ _____ _____    ______ ____
ROOT
ATOM      1  C   LIG    1       -0.017   1.428   0.010  0.00  0.00    +0.020 A 
ATOM      2  C   LIG    1       -1.231   2.110   0.031  0.00  0.00    +0.080 A 
ATOM      3  C   LIG    1       -1.258   3.492   0.039  0.00  0.00    +0.010 A 
ATOM      4  C   LIG    1       -0.080   4.212   0.026  0.00  0.00    +0.090 A 
ATOM      5  C   LIG    1        1.143   3.547   0.005  0.00  0.00    -0.120 A 
ATOM      6  C   LIG    1        2.550   3.990  -0.012  0.00  0.00    -0.120 A 
ATOM      7  C   LIG    1        3.172   5.234  -0.019  0.00  0.00    +0.070 A 
ATOM      8  C   LIG    1        4.549   5.310  -0.046  0.00  0.00    +0.000 A 
ATOM      9  C   LIG    1        5.309   4.152  -0.066  0.00  0.00    +0.060 A 
ATOM     10  C   LIG    1        4.703   2.913  -0.055  0.00  0.00    +0.030 A 
ATOM     11  C   LIG    1        3.317   2.817  -0.031  0.00  0.00    +0.080 A 
ATOM     12  O   LIG    1        2.479   1.757  -0.019  0.00  0.00    -0.190 OA
ATOM     13  C   LIG    1        1.186   2.148   0.002  0.00  0.00    +0.100 A 
ENDROOT
BRANCH   1  15
ATOM     14  C   LIG    1        0.018  -1.178  -0.004  0.00  0.00    +0.070 C 
ATOM     15  C   LIG    1        0.002  -0.004   0.002  0.00  0.00    -0.160 C 
ENDBRANCH   1  15
TORSDOF 1
ENDMDL
MODEL      115
REMARK  Name = ZINC000001593859
REMARK                            x       y       z     vdW  Elec       q    Type
REMARK                         _______ _______ _______ _____ _____    ______ ____
ROOT
ATOM      1  C   LIG    1        1.232  -0.628   0.149  0.00  0.00    +0.030 A 
ATOM      2  C   LIG    1        2.238  -0.198  -0.718  0.00  0.00    +0.020 A 
ATOM      3  C   LIG    1        3.429  -0.888  -0.784  0.00  0.00    -0.030 A 
ATOM      4  C   LIG    1        3.629  -2.011   0.012  0.00  0.00    +0.180 A 
ATOM      5  C   LIG    1        2.629  -2.441   0.876  0.00  0.00    -0.030 A 
ATOM      6  C   LIG    1        1.437  -1.752   0.950  0.00  0.00    +0.070 A 
ENDROOT
BRANCH   1   8
ATOM      7  C   LIG    1        0.046   1.347   0.272  0.00  0.00    +0.360 C 
ATOM      8  N   LIG    1        0.044   0.058   0.218  0.00  0.00    -0.480 NA
ENDBRANCH   1   8
BRANCH   4   9
ATOM      9  N   LIG    1        4.837  -2.707  -0.057  0.00  0.00    -0.690 N 
ATOM     10  H   LIG    1        4.870  -3.646   0.183  0.00  0.00    +0.410 HD
BRANCH   9  11
ATOM     11  C   LIG    1        5.999  -2.052  -0.473  0.00  0.00    +0.180 A 
ATOM     12  C   LIG    1        6.180  -0.705  -0.183  0.00  0.00    -0.030 A 
ATOM     13  C   LIG    1        7.329  -0.060  -0.595  0.00  0.00    +0.030 A 
ATOM     14  C   LIG    1        8.300  -0.753  -1.295  0.00  0.00    -0.030 A 
ATOM     15  C   LIG    1        8.123  -2.094  -1.585  0.00  0.00    +0.040 A 
ATOM     16  C   LIG    1        6.978  -2.746  -1.172  0.00  0.00    -0.040 A 
ENDBRANCH   9  11
ENDBRANCH   4   9
TORSDOF 3
ENDMDL
MODEL      116
REMARK  Name = ZINC000038635151
REMARK                            x       y       z     vdW  Elec       q    Type
REMARK                         _______ _______ _______ _____ _____    ______ ____
ROOT
ATOM      1  C   LIG    1       -1.652  -0.639  -0.202  0.00  0.00    -0.230 C 
ATOM      2  C   LIG    1       -1.416  -1.951  -0.261  0.00  0.00    -0.010 C 
ATOM      3  C   LIG    1        0.001  -2.463  -0.241  0.00  0.00    +0.090 C 
ATOM      4  C   LIG    1       -3.052  -0.116  -0.400  0.00  0.00    +0.100 C 
ENDROOT
BRANCH   1   6
ATOM      5  C   LIG    1       -0.802   1.777   0.029  0.00  0.00    +0.060 C 
ATOM      6  C   LIG    1       -0.553   0.291   0.056  0.00  0.00    +0.380 C 
ATOM      7  O   LIG    1        0.558  -0.134   0.291  0.00  0.00    -0.460 OA
ENDBRANCH   1   6
BRANCH   2   8
ATOM      8  C   LIG    1       -2.566  -2.921  -0.348  0.00  0.00    +0.030 C 
ATOM      9  C   LIG    1       -2.329  -3.891  -1.507  0.00  0.00    +0.040 C 
BRANCH   8  10
ATOM     10  C   LIG    1       -2.671  -3.706   0.961  0.00  0.00    -0.060 C 
ATOM     11  C   LIG    1       -1.426  -4.579   1.134  0.00  0.00    +0.010 C 
ATOM     12  C   LIG    1       -3.916  -4.596   0.924  0.00  0.00    +0.030 C 
ATOM     13  C   LIG    1       -2.777  -2.730   2.135  0.00  0.00    +0.030 C 
ENDBRANCH   8  10
ENDBRANCH   2   8
TORSDOF 3
ENDMDL
MODEL      117
REMARK  Name = ZINC000111893162
REMARK                            x       y       z     vdW  Elec       q    Type
REMARK                         _______ _______ _______ _____ _____    ______ ____
ROOT
ATOM      1  C   LIG    1       -0.874  -0.654  -0.045  0.00  0.00    -0.240 C 
ATOM      2  C   LIG    1       -0.995  -1.983  -0.026  0.00  0.00    -0.010 C 
ATOM      3  C   LIG    1       -2.361  -2.614   0.058  0.00  0.00    +0.080 C 
ATOM      4  C   LIG    1       -2.078   0.216   0.210  0.00  0.00    +0.100 C 
ENDROOT
BRANCH   1   6
ATOM      5  C   LIG    1        0.595   1.452  -0.199  0.00  0.00    +0.060 C 
ATOM      6  C   LIG    1        0.426  -0.042  -0.315  0.00  0.00    +0.380 C 
ATOM      7  O   LIG    1        1.370  -0.736  -0.632  0.00  0.00    -0.450 OA
ENDBRANCH   1   6
BRANCH   2   8
ATOM      8  C   LIG    1        0.234  -2.852  -0.088  0.00  0.00    +0.040 C 
ATOM      9  C   LIG    1        0.111  -3.984   0.934  0.00  0.00    +0.020 C 
BRANCH   8  10
ATOM     10  C   LIG    1        0.369  -3.445  -1.492  0.00  0.00    -0.040 C 
ATOM     11  C   LIG    1       -0.764  -4.444  -1.734  0.00  0.00    +0.010 C 
ATOM     12  C   LIG    1        1.715  -4.162  -1.615  0.00  0.00    +0.020 C 
ATOM     13  C   LIG    1        0.292  -2.324  -2.529  0.00  0.00    +0.020 C 
ENDBRANCH   8  10
ENDBRANCH   2   8
TORSDOF 3
ENDMDL
MODEL      118
REMARK  Name = ZINC000111893160
REMARK                            x       y       z     vdW  Elec       q    Type
REMARK                         _______ _______ _______ _____ _____    ______ ____
ROOT
ATOM      1  C   LIG    1       -0.754  -0.717  -0.358  0.00  0.00    -0.240 C 
ATOM      2  C   LIG    1       -0.920  -2.041  -0.321  0.00  0.00    +0.000 C 
ATOM      3  C   LIG    1       -2.307  -2.628  -0.364  0.00  0.00    +0.090 C 
ATOM      4  C   LIG    1       -1.887   0.195   0.036  0.00  0.00    +0.080 C 
ENDROOT
BRANCH   1   6
ATOM      5  C   LIG    1        0.767   1.332  -0.677  0.00  0.00    +0.060 C 
ATOM      6  C   LIG    1        0.527  -0.152  -0.782  0.00  0.00    +0.390 C 
ATOM      7  O   LIG    1        1.396  -0.878  -1.217  0.00  0.00    -0.460 OA
ENDBRANCH   1   6
BRANCH   2   8
ATOM      8  C   LIG    1        0.281  -2.949  -0.236  0.00  0.00    +0.040 C 
ATOM      9  C   LIG    1        0.369  -3.797  -1.506  0.00  0.00    +0.040 C 
BRANCH   8  10
ATOM     10  C   LIG    1        0.142  -3.865   0.981  0.00  0.00    -0.060 C 
ATOM     11  C   LIG    1       -0.302  -3.041   2.191  0.00  0.00    +0.020 C 
ATOM     12  C   LIG    1        1.490  -4.524   1.280  0.00  0.00    +0.030 C 
ATOM     13  C   LIG    1       -0.901  -4.946   0.689  0.00  0.00    +0.020 C 
ENDBRANCH   8  10
ENDBRANCH   2   8
TORSDOF 3
ENDMDL
MODEL      119
REMARK  Name = ZINC000002559086
REMARK                            x       y       z     vdW  Elec       q    Type
REMARK                         _______ _______ _______ _____ _____    ______ ____
ROOT
ATOM      1  C   LIG    1       -1.444  -0.414   0.187  0.00  0.00    -0.230 C 
ATOM      2  C   LIG    1       -1.261  -1.722   0.384  0.00  0.00    -0.010 C 
ATOM      3  C   LIG    1        0.123  -2.258   0.645  0.00  0.00    +0.090 C 
ATOM      4  C   LIG    1       -2.840   0.144   0.083  0.00  0.00    +0.100 C 
ENDROOT
BRANCH   1   6
ATOM      5  C   LIG    1       -0.494   1.968  -0.003  0.00  0.00    +0.060 C 
ATOM      6  C   LIG    1       -0.290   0.477   0.073  0.00  0.00    +0.380 C 
ATOM      7  O   LIG    1        0.832   0.015   0.041  0.00  0.00    -0.460 OA
ENDBRANCH   1   6
BRANCH   2   8
ATOM      8  C   LIG    1       -2.439  -2.662   0.344  0.00  0.00    +0.030 C 
ATOM      9  C   LIG    1       -2.463  -3.502   1.623  0.00  0.00    +0.040 C 
BRANCH   8  10
ATOM     10  C   LIG    1       -2.314  -3.584  -0.870  0.00  0.00    -0.060 C 
ATOM     11  C   LIG    1       -2.115  -2.741  -2.132  0.00  0.00    +0.030 C 
ATOM     12  C   LIG    1       -3.590  -4.418  -1.010  0.00  0.00    +0.030 C 
ATOM     13  C   LIG    1       -1.114  -4.514  -0.684  0.00  0.00    +0.020 C 
ENDBRANCH   8  10
ENDBRANCH   2   8
TORSDOF 3
ENDMDL
MODEL      120
REMARK  Name = ZINC000044563992
REMARK                            x       y       z     vdW  Elec       q    Type
REMARK                         _______ _______ _______ _____ _____    ______ ____
ROOT
ATOM      1  C   LIG    1        2.264  -4.584   3.704  0.00  0.00    +0.000 C 
ATOM      2  C   LIG    1        1.476  -4.200   4.965  0.00  0.00    +0.030 C 
ATOM      3  C   LIG    1        2.274  -4.685   6.158  0.00  0.00    +0.390 C 
ATOM      4  C   LIG    1        2.893  -6.012   6.073  0.00  0.00    -0.120 C 
ATOM      5  C   LIG    1        2.948  -6.659   4.915  0.00  0.00    -0.040 C 
ATOM      6  C   LIG    1        3.604  -8.015   4.882  0.00  0.00    +0.090 C 
ATOM      7  O   LIG    1        2.396  -3.998   7.151  0.00  0.00    -0.460 OA
ATOM      8  C   LIG    1        2.390  -6.106   3.637  0.00  0.00    +0.080 C 
ENDROOT
BRANCH   1   9
ATOM      9  C   LIG    1        1.524  -4.077   2.464  0.00  0.00    +0.030 C 
BRANCH   9  10
ATOM     10  C   LIG    1        1.503  -2.548   2.473  0.00  0.00    +0.010 C 
BRANCH  10  11
ATOM     11  C   LIG    1        0.763  -2.041   1.233  0.00  0.00    +0.000 C 
BRANCH  11  12
ATOM     12  C   LIG    1        0.742  -0.511   1.242  0.00  0.00    +0.000 C 
BRANCH  12  14
ATOM     13  C   LIG    1       -0.019   1.526   0.010  0.00  0.00    +0.000 C 
ATOM     14  C   LIG    1        0.002  -0.004   0.002  0.00  0.00    -0.010 C 
ENDBRANCH  12  14
ENDBRANCH  11  12
ENDBRANCH  10  11
ENDBRANCH   9  10
ENDBRANCH   1   9
TORSDOF 5
ENDMDL
MODEL      121
REMARK  Name = ZINC000044563993
REMARK                            x       y       z     vdW  Elec       q    Type
REMARK                         _______ _______ _______ _____ _____    ______ ____
ROOT
ATOM      1  C   LIG    1        2.264  -4.584   3.704  0.00  0.00    +0.000 C 
ATOM      2  C   LIG    1        3.738  -4.162   3.630  0.00  0.00    +0.030 C 
ATOM      3  C   LIG    1        4.409  -4.649   4.898  0.00  0.00    +0.390 C 
ATOM      4  C   LIG    1        4.069  -5.992   5.379  0.00  0.00    -0.120 C 
ATOM      5  C   LIG    1        3.046  -6.657   4.857  0.00  0.00    -0.040 C 
ATOM      6  C   LIG    1        2.734  -8.030   5.396  0.00  0.00    +0.090 C 
ATOM      7  O   LIG    1        5.202  -3.951   5.495  0.00  0.00    -0.460 OA
ATOM      8  C   LIG    1        2.182  -6.109   3.760  0.00  0.00    +0.080 C 
ENDROOT
BRANCH   1   9
ATOM      9  C   LIG    1        1.524  -4.077   2.464  0.00  0.00    +0.030 C 
BRANCH   9  10
ATOM     10  C   LIG    1        1.503  -2.548   2.473  0.00  0.00    +0.000 C 
BRANCH  10  11
ATOM     11  C   LIG    1        0.763  -2.041   1.233  0.00  0.00    +0.000 C 
BRANCH  11  12
ATOM     12  C   LIG    1        0.742  -0.511   1.242  0.00  0.00    +0.000 C 
BRANCH  12  14
ATOM     13  C   LIG    1       -0.019   1.526   0.010  0.00  0.00    +0.000 C 
ATOM     14  C   LIG    1        0.002  -0.004   0.002  0.00  0.00    -0.010 C 
ENDBRANCH  12  14
ENDBRANCH  11  12
ENDBRANCH  10  11
ENDBRANCH   9  10
ENDBRANCH   1   9
TORSDOF 5
ENDMDL
MODEL      122
REMARK  Name = ZINC000250221138
REMARK                            x       y       z     vdW  Elec       q    Type
REMARK                         _______ _______ _______ _____ _____    ______ ____
ROOT
ATOM      1  C   LIG    1        1.317  -0.740  -0.015  0.00  0.00    +0.010 C 
ATOM      2  C   LIG    1        1.422  -1.625   1.229  0.00  0.00    +0.010 C 
ATOM      3  C   LIG    1        2.757  -2.372   1.212  0.00  0.00    +0.000 C 
ATOM      4  C   LIG    1        2.838  -3.243  -0.043  0.00  0.00    -0.020 C 
ATOM      5  C   LIG    1        2.733  -2.358  -1.286  0.00  0.00    +0.000 C 
ATOM      6  C   LIG    1        1.398  -1.611  -1.269  0.00  0.00    +0.010 C 
ENDROOT
BRANCH   1   8
ATOM      7  C   LIG    1       -0.016   1.306   0.009  0.00  0.00    +0.010 C 
ATOM      8  C   LIG    1        0.002  -0.004   0.002  0.00  0.00    -0.040 C 
ENDBRANCH   1   8
BRANCH   4   9
ATOM      9  C   LIG    1        4.174  -3.990  -0.059  0.00  0.00    +0.000 C 
BRANCH   9  10
ATOM     10  C   LIG    1        4.203  -4.955  -1.246  0.00  0.00    -0.010 C 
ATOM     11  C   LIG    1        5.539  -5.702  -1.263  0.00  0.00    +0.000 C 
ENDBRANCH   9  10
ENDBRANCH   4   9
TORSDOF 3
ENDMDL
MODEL      123
REMARK  Name = ZINC000003958271
REMARK                            x       y       z     vdW  Elec       q    Type
REMARK                         _______ _______ _______ _____ _____    ______ ____
ROOT
ATOM      1  N   LIG    1        3.603  -0.634  -0.036  0.00  0.00    -0.490 NA
ATOM      2  C   LIG    1        3.826  -1.580   0.813  0.00  0.00    +0.200 C 
ATOM      3  C   LIG    1        2.739  -2.050   1.754  0.00  0.00    +0.030 C 
ATOM      4  C   LIG    1        2.628  -3.575   1.648  0.00  0.00    +0.020 C 
ATOM      5  C   LIG    1        3.998  -4.203   1.904  0.00  0.00    +0.020 C 
ATOM      6  C   LIG    1        4.981  -3.766   0.817  0.00  0.00    +0.030 C 
ATOM      7  C   LIG    1        5.179  -2.252   0.888  0.00  0.00    +0.100 C 
ENDROOT
BRANCH   1  11
ATOM      8  C   LIG    1        0.013   1.431   0.059  0.00  0.00    -0.010 A 
ATOM      9  C   LIG    1        0.812   1.385   1.188  0.00  0.00    +0.020 A 
ATOM     10  C   LIG    1        2.009   0.699   1.163  0.00  0.00    -0.030 A 
ATOM     11  C   LIG    1        2.413   0.051  -0.005  0.00  0.00    +0.090 A 
ATOM     12  C   LIG    1        1.603   0.101  -1.139  0.00  0.00    +0.010 A 
ATOM     13  C   LIG    1        0.409   0.790  -1.101  0.00  0.00    +0.030 A 
ENDBRANCH   1  11
TORSDOF 1
ENDMDL
MODEL      124
REMARK  Name = ZINC000034455178
REMARK                            x       y       z     vdW  Elec       q    Type
REMARK                         _______ _______ _______ _____ _____    ______ ____
ROOT
ATOM      1  C   LIG    1        2.154   0.032  -1.268  0.00  0.00    +0.020 C 
ENDROOT
BRANCH   1   2
ATOM      2  C   LIG    1        0.718  -0.497  -1.257  0.00  0.00    +0.030 C 
BRANCH   2   4
ATOM      3  C   LIG    1       -0.019   1.526   0.010  0.00  0.00    +0.060 C 
ATOM      4  C   LIG    1        0.002  -0.004   0.002  0.00  0.00    +0.040 C 
ATOM      5  C   LIG    1        0.742  -0.511   1.242  0.00  0.00    +0.060 C 
BRANCH   4   6
ATOM      6  C   LIG    1       -1.379  -0.514   0.013  0.00  0.00    +0.210 C 
ATOM      7  N   LIG    1       -2.445  -0.907   0.021  0.00  0.00    -0.430 NA
ENDBRANCH   4   6
ENDBRANCH   2   4
ENDBRANCH   1   2
BRANCH   1   8
ATOM      8  C   LIG    1        2.870  -0.461  -2.526  0.00  0.00    +0.060 C 
BRANCH   8   9
ATOM      9  C   LIG    1        4.284   0.060  -2.537  0.00  0.00    -0.080 A 
ATOM     10  C   LIG    1        4.566   1.278  -3.127  0.00  0.00    +0.000 A 
ATOM     11  C   LIG    1        5.863   1.756  -3.137  0.00  0.00    +0.000 A 
ATOM     12  C   LIG    1        6.877   1.018  -2.556  0.00  0.00    -0.010 A 
ATOM     13  C   LIG    1        6.594  -0.200  -1.966  0.00  0.00    +0.000 A 
ATOM     14  C   LIG    1        5.296  -0.676  -1.952  0.00  0.00    +0.000 A 
ENDBRANCH   8   9
ENDBRANCH   1   8
TORSDOF 5
ENDMDL
MODEL      125
REMARK  Name = ZINC000005566856
REMARK                            x       y       z     vdW  Elec       q    Type
REMARK                         _______ _______ _______ _____ _____    ______ ____
ROOT
ATOM      1  O   LIG    1        0.002  -0.004   0.002  0.00  0.00    -0.293 OA
ATOM      2  C   LIG    1       -0.014   1.209   0.009  0.00  0.00    +0.156 C 
ATOM      3  C   LIG    1       -1.296   1.913   0.050  0.00  0.00    +0.045 C 
ATOM      4  C   LIG    1       -1.355   3.227  -0.170  0.00  0.00    -0.066 C 
ATOM      5  C   LIG    1       -0.077   3.964  -0.508  0.00  0.00    +0.034 C 
ATOM      6  C   LIG    1        1.012   3.412   0.425  0.00  0.00    +0.000 C 
ATOM      7  C   LIG    1        2.253   4.287   0.351  0.00  0.00    +0.004 C 
ATOM      8  C   LIG    1        1.865   5.759   0.520  0.00  0.00    +0.000 C 
ATOM      9  C   LIG    1        0.957   5.943   1.734  0.00  0.00    +0.000 C 
ATOM     10  C   LIG    1       -0.382   6.550   1.312  0.00  0.00    +0.000 C 
ATOM     11  C   LIG    1       -1.512   5.540   1.524  0.00  0.00    +0.000 C 
ATOM     12  C   LIG    1       -2.377   5.447   0.267  0.00  0.00    +0.004 C 
ATOM     13  C   LIG    1       -2.647   3.984  -0.092  0.00  0.00    +0.031 C 
ATOM     14  C   LIG    1        1.293   1.967   0.000  0.00  0.00    +0.083 C 
ENDROOT
TORSDOF 0
ENDMDL
MODEL      126
REMARK  Name = ZINC000005133729
REMARK                            x       y       z     vdW  Elec       q    Type
REMARK                         _______ _______ _______ _____ _____    ______ ____
ROOT
ATOM      1  O   LIG    1        0.002  -0.004   0.002  0.00  0.00    -0.293 OA
ATOM      2  C   LIG    1       -0.014   1.214   0.009  0.00  0.00    +0.156 C 
ATOM      3  C   LIG    1       -1.286   1.938   0.019  0.00  0.00    +0.042 C 
ATOM      4  C   LIG    1       -1.325   3.265  -0.048  0.00  0.00    -0.017 C 
ATOM      5  C   LIG    1       -0.086   4.101  -0.137  0.00  0.00    -0.010 C 
ATOM      6  C   LIG    1        0.407   4.226  -1.571  0.00  0.00    +0.011 C 
ATOM      7  C   LIG    1       -0.539   4.957  -2.518  0.00  0.00    +0.001 C 
ATOM      8  C   LIG    1       -0.511   6.461  -2.212  0.00  0.00    +0.000 C 
ATOM      9  C   LIG    1       -1.898   6.901  -1.700  0.00  0.00    +0.000 C 
ATOM     10  C   LIG    1       -2.429   5.850  -0.714  0.00  0.00    +0.000 C 
ATOM     11  C   LIG    1       -1.687   5.943   0.616  0.00  0.00    +0.001 C 
ATOM     12  C   LIG    1        1.027   3.362   0.650  0.00  0.00    +0.019 C 
ATOM     13  C   LIG    1       -0.254   5.460   0.524  0.00  0.00    +0.011 C 
ATOM     14  C   LIG    1        1.278   1.999   0.001  0.00  0.00    +0.080 C 
ENDROOT
TORSDOF 0
ENDMDL
MODEL      127
REMARK  Name = ZINC000014556357
REMARK                            x       y       z     vdW  Elec       q    Type
REMARK                         _______ _______ _______ _____ _____    ______ ____
ROOT
ATOM      1  C   LIG    1        0.875   0.246  -4.700  0.00  0.00    -0.070 C 
ATOM      2  C   LIG    1        1.746   1.236  -4.913  0.00  0.00    -0.050 C 
ATOM      3  C   LIG    1       -0.130  -0.116  -5.763  0.00  0.00    +0.090 C 
ENDROOT
BRANCH   2   4
ATOM      4  C   LIG    1        2.720   1.587  -3.882  0.00  0.00    +0.120 C 
ATOM      5  C   LIG    1        3.605   2.593  -4.099  0.00  0.00    -0.130 C 
BRANCH   5   6
ATOM      6  C   LIG    1        4.544   2.930  -3.106  0.00  0.00    +0.380 C 
ATOM      7  O   LIG    1        4.562   2.321  -2.055  0.00  0.00    -0.480 OA
ATOM      8  C   LIG    1        5.526   4.048  -3.346  0.00  0.00    +0.060 C 
ENDBRANCH   5   6
ENDBRANCH   2   4
BRANCH   1   9
ATOM      9  C   LIG    1        0.898  -0.510  -3.397  0.00  0.00    +0.060 C 
BRANCH   9  10
ATOM     10  C   LIG    1       -0.122   0.102  -2.434  0.00  0.00    +0.050 C 
BRANCH  10  13
ATOM     11  C   LIG    1        0.165   1.492   0.002  0.00  0.00    +0.080 C 
ATOM     12  C   LIG    1        0.092  -0.013  -0.005  0.00  0.00    -0.120 C 
ATOM     13  C   LIG    1       -0.099  -0.654  -1.131  0.00  0.00    -0.060 C 
ATOM     14  C   LIG    1        0.238  -0.780   1.284  0.00  0.00    +0.070 C 
ENDBRANCH  10  13
ENDBRANCH   9  10
ENDBRANCH   1   9
TORSDOF 5
ENDMDL
MODEL      128
REMARK  Name = ZINC000082048812
REMARK                            x       y       z     vdW  Elec       q    Type
REMARK                         _______ _______ _______ _____ _____    ______ ____
ROOT
ATOM      1  C   LIG    1        0.707  -0.490  -1.238  0.00  0.00    -0.030 A 
ATOM      2  C   LIG    1        0.032  -1.285  -2.147  0.00  0.00    +0.030 A 
ATOM      3  C   LIG    1        0.671  -1.734  -3.284  0.00  0.00    +0.090 A 
ATOM      4  C   LIG    1        2.002  -1.385  -3.518  0.00  0.00    -0.020 A 
ATOM      5  C   LIG    1        2.679  -0.581  -2.595  0.00  0.00    +0.010 A 
ATOM      6 CL   LIG    1        4.335  -0.140  -2.875  0.00  0.00    -0.050 Cl
ATOM      7  C   LIG    1        2.025  -0.135  -1.464  0.00  0.00    +0.030 A 
ENDROOT
BRANCH   1   9
ATOM      8  C   LIG    1       -0.019   1.526   0.010  0.00  0.00    +0.040 C 
ATOM      9  C   LIG    1        0.002  -0.004   0.002  0.00  0.00    -0.030 C 
ATOM     10  C   LIG    1       -1.433  -0.534   0.013  0.00  0.00    +0.030 C 
ATOM     11  C   LIG    1        0.742  -0.511   1.242  0.00  0.00    +0.040 C 
ENDBRANCH   1   9
BRANCH   4  12
ATOM     12  C   LIG    1        2.672  -1.847  -4.697  0.00  0.00    +0.250 C 
ATOM     13  N   LIG    1        3.202  -2.213  -5.632  0.00  0.00    -0.400 NA
ENDBRANCH   4  12
TORSDOF 2
ENDMDL
MODEL      129
REMARK  Name = ZINC000067792737
REMARK                            x       y       z     vdW  Elec       q    Type
REMARK                         _______ _______ _______ _____ _____    ______ ____
ROOT
ATOM      1  C   LIG    1        0.707  -0.490  -1.238  0.00  0.00    -0.070 A 
ATOM      2  C   LIG    1        0.034  -1.285  -2.148  0.00  0.00    +0.070 A 
ATOM      3  C   LIG    1        0.673  -1.736  -3.289  0.00  0.00    +0.040 A 
ATOM      4  C   LIG    1        1.989  -1.395  -3.527  0.00  0.00    +0.000 A 
ATOM      5  C   LIG    1        2.676  -0.592  -2.611  0.00  0.00    -0.010 A 
ATOM      6 CL   LIG    1        2.790  -1.961  -4.960  0.00  0.00    -0.050 Cl
ATOM      7  C   LIG    1        2.021  -0.137  -1.465  0.00  0.00    +0.080 A 
ENDROOT
BRANCH   1   9
ATOM      8  C   LIG    1       -0.019   1.526   0.010  0.00  0.00    +0.040 C 
ATOM      9  C   LIG    1        0.002  -0.004   0.002  0.00  0.00    -0.030 C 
ATOM     10  C   LIG    1       -1.433  -0.534   0.013  0.00  0.00    +0.030 C 
ATOM     11  C   LIG    1        0.742  -0.511   1.242  0.00  0.00    +0.040 C 
ENDBRANCH   1   9
BRANCH   5  12
ATOM     12  C   LIG    1        4.041  -0.233  -2.851  0.00  0.00    +0.250 C 
ATOM     13  N   LIG    1        5.124   0.051  -3.041  0.00  0.00    -0.390 NA
ENDBRANCH   5  12
TORSDOF 2
ENDMDL
MODEL      130
REMARK  Name = ZINC000004800743
REMARK                            x       y       z     vdW  Elec       q    Type
REMARK                         _______ _______ _______ _____ _____    ______ ____
ROOT
ATOM      1  C   LIG    1        0.064   1.333   0.200  0.00  0.00    +0.000 C 
ATOM      2  C   LIG    1        0.037   0.026   0.112  0.00  0.00    -0.090 C 
ATOM      3  C   LIG    1       -1.252  -0.786   0.234  0.00  0.00    +0.020 C 
ATOM      4  C   LIG    1       -0.883  -2.219   0.692  0.00  0.00    +0.030 C 
ATOM      5  C   LIG    1       -0.486  -2.459  -0.775  0.00  0.00    -0.030 C 
ATOM      6  C   LIG    1        0.920  -1.941  -1.104  0.00  0.00    +0.060 C 
ATOM      7  C   LIG    1       -1.603  -1.417  -1.129  0.00  0.00    -0.080 C 
ATOM      8  C   LIG    1       -1.269  -0.539  -2.336  0.00  0.00    +0.030 C 
ATOM      9  C   LIG    1       -3.009  -2.017  -1.194  0.00  0.00    +0.050 C 
ATOM     10  C   LIG    1        1.286  -0.811  -0.126  0.00  0.00    +0.050 C 
ENDROOT
BRANCH  10  11
ATOM     11  C   LIG    1        2.407   0.046  -0.718  0.00  0.00    +0.080 C 
BRANCH  11  12
ATOM     12  S   LIG    1        3.912  -0.954  -0.879  0.00  0.00    -0.260 S 
ATOM     13  C   LIG    1        5.105   0.216  -1.585  0.00  0.00    +0.140 C 
ENDBRANCH  11  12
ENDBRANCH  10  11
TORSDOF 2
ENDMDL
MODEL      131
REMARK  Name = ZINC000005158708
REMARK                            x       y       z     vdW  Elec       q    Type
REMARK                         _______ _______ _______ _____ _____    ______ ____
ROOT
ATOM      1  C   LIG    1       -4.614   0.330  -1.134  0.00  0.00    -0.120 C 
ATOM      2  C   LIG    1       -4.725   1.392  -1.866  0.00  0.00    -0.050 C 
ATOM      3  C   LIG    1       -5.971   2.222  -1.960  0.00  0.00    +0.080 C 
ATOM      4  C   LIG    1       -6.906   1.904  -0.791  0.00  0.00    -0.070 C 
ATOM      5  C   LIG    1       -7.059   0.381  -0.692  0.00  0.00    +0.030 C 
ATOM      6  C   LIG    1       -5.716  -0.217  -0.274  0.00  0.00    +0.070 C 
ENDROOT
BRANCH   4   7
ATOM      7  C   LIG    1       -8.252   2.539  -1.031  0.00  0.00    +0.450 C 
ATOM      8  O   LIG    1       -8.685   3.349  -0.248  0.00  0.00    -0.460 OA
ENDBRANCH   4   7
BRANCH   1   9
ATOM      9  C   LIG    1       -3.299  -0.406  -1.150  0.00  0.00    +0.060 C 
BRANCH   9  10
ATOM     10  C   LIG    1       -2.438   0.061   0.026  0.00  0.00    +0.050 C 
BRANCH  10  13
ATOM     11  C   LIG    1       -0.018   1.503   0.010  0.00  0.00    +0.080 C 
ATOM     12  C   LIG    1        0.002  -0.004   0.002  0.00  0.00    -0.130 C 
ATOM     13  C   LIG    1       -1.123  -0.674   0.009  0.00  0.00    -0.060 C 
ATOM     14  C   LIG    1        1.317  -0.740  -0.015  0.00  0.00    +0.070 C 
ENDBRANCH  10  13
ENDBRANCH   9  10
ENDBRANCH   1   9
TORSDOF 4
ENDMDL
MODEL      132
REMARK  Name = ZINC000005158700
REMARK                            x       y       z     vdW  Elec       q    Type
REMARK                         _______ _______ _______ _____ _____    ______ ____
ROOT
ATOM      1  C   LIG    1       -4.614   0.330  -1.134  0.00  0.00    -0.120 C 
ATOM      2  C   LIG    1       -4.725   1.392  -1.866  0.00  0.00    -0.050 C 
ATOM      3  C   LIG    1       -5.965   2.233  -1.945  0.00  0.00    +0.080 C 
ATOM      4  C   LIG    1       -7.166   1.453  -1.406  0.00  0.00    -0.070 C 
ATOM      5  C   LIG    1       -6.785   0.855  -0.046  0.00  0.00    +0.030 C 
ATOM      6  C   LIG    1       -5.716  -0.217  -0.274  0.00  0.00    +0.080 C 
ENDROOT
BRANCH   4   7
ATOM      7  C   LIG    1       -8.342   2.382  -1.245  0.00  0.00    +0.450 C 
ATOM      8  O   LIG    1       -9.364   2.172  -1.852  0.00  0.00    -0.460 OA
ENDBRANCH   4   7
BRANCH   1   9
ATOM      9  C   LIG    1       -3.299  -0.406  -1.150  0.00  0.00    +0.060 C 
BRANCH   9  10
ATOM     10  C   LIG    1       -2.438   0.061   0.026  0.00  0.00    +0.050 C 
BRANCH  10  13
ATOM     11  C   LIG    1       -0.018   1.503   0.010  0.00  0.00    +0.080 C 
ATOM     12  C   LIG    1        0.002  -0.004   0.002  0.00  0.00    -0.130 C 
ATOM     13  C   LIG    1       -1.123  -0.674   0.009  0.00  0.00    -0.060 C 
ATOM     14  C   LIG    1        1.317  -0.740  -0.015  0.00  0.00    +0.070 C 
ENDBRANCH  10  13
ENDBRANCH   9  10
ENDBRANCH   1   9
TORSDOF 4
ENDMDL
MODEL      133
REMARK  Name = ZINC000082053938
REMARK                            x       y       z     vdW  Elec       q    Type
REMARK                         _______ _______ _______ _____ _____    ______ ____
ROOT
ATOM      1  C   LIG    1       -4.263  -4.652   0.018  0.00  0.00    +0.050 C 
ENDROOT
BRANCH   1   2
ATOM      2  C   LIG    1       -4.242  -6.159   0.009  0.00  0.00    -0.040 C 
ATOM      3  C   LIG    1       -4.875  -6.828   0.941  0.00  0.00    -0.040 C 
BRANCH   3   4
ATOM      4  C   LIG    1       -4.855  -8.335   0.933  0.00  0.00    +0.070 C 
BRANCH   4   5
ATOM      5  C   LIG    1       -4.349  -8.838   2.261  0.00  0.00    +0.360 C 
ATOM      6  O   LIG    1       -4.038  -8.053   3.124  0.00  0.00    -0.460 OA
ATOM      7  C   LIG    1       -4.232 -10.319   2.510  0.00  0.00    +0.050 C 
ENDBRANCH   4   5
ENDBRANCH   3   4
ENDBRANCH   1   2
BRANCH   1   8
ATOM      8  C   LIG    1       -2.827  -4.123   0.007  0.00  0.00    +0.000 C 
BRANCH   8   9
ATOM      9  C   LIG    1       -2.848  -2.593   0.015  0.00  0.00    +0.000 C 
BRANCH   9  10
ATOM     10  C   LIG    1       -1.413  -2.063   0.004  0.00  0.00    +0.000 C 
BRANCH  10  11
ATOM     11  C   LIG    1       -1.433  -0.534   0.013  0.00  0.00    +0.000 C 
BRANCH  11  13
ATOM     12  C   LIG    1       -0.019   1.526   0.010  0.00  0.00    +0.000 C 
ATOM     13  C   LIG    1        0.002  -0.004   0.002  0.00  0.00    -0.010 C 
ENDBRANCH  11  13
ENDBRANCH  10  11
ENDBRANCH   9  10
ENDBRANCH   8   9
ENDBRANCH   1   8
TORSDOF 8
ENDMDL
MODEL      134
REMARK  Name = ZINC000014587983
REMARK                            x       y       z     vdW  Elec       q    Type
REMARK                         _______ _______ _______ _____ _____    ______ ____
ROOT
ATOM      1  C   LIG    1        0.016  -2.809  -2.585  0.00  0.00    +0.030 C 
ATOM      2  C   LIG    1       -1.222  -3.705  -2.659  0.00  0.00    -0.010 C 
ATOM      3  C   LIG    1       -1.224  -4.463  -3.988  0.00  0.00    +0.010 C 
ATOM      4  C   LIG    1        0.036  -5.325  -4.086  0.00  0.00    +0.010 C 
ATOM      5  C   LIG    1        1.274  -4.429  -4.012  0.00  0.00    +0.010 C 
ATOM      6  C   LIG    1       -2.482  -2.843  -2.561  0.00  0.00    +0.030 C 
ATOM      7  C   LIG    1        1.276  -3.671  -2.683  0.00  0.00    -0.050 C 
ATOM      8  C   LIG    1        1.301  -4.672  -1.525  0.00  0.00    +0.030 C 
ATOM      9  C   LIG    1        2.514  -2.775  -2.609  0.00  0.00    +0.030 C 
ENDROOT
BRANCH   1  11
ATOM     10  C   LIG    1       -0.000  -0.729  -1.269  0.00  0.00    -0.120 C 
ATOM     11  C   LIG    1        0.018  -2.063  -1.276  0.00  0.00    +0.080 C 
BRANCH  10  13
ATOM     12  C   LIG    1       -0.018   1.503   0.010  0.00  0.00    +0.060 C 
ATOM     13  C   LIG    1        0.002  -0.004   0.002  0.00  0.00    +0.380 C 
ATOM     14  O   LIG    1        0.020  -0.616   1.049  0.00  0.00    -0.470 OA
ENDBRANCH  10  13
ENDBRANCH   1  11
TORSDOF 2
ENDMDL
MODEL      135
REMARK  Name = ZINC000104394104
REMARK                            x       y       z     vdW  Elec       q    Type
REMARK                         _______ _______ _______ _____ _____    ______ ____
ROOT
ATOM      1  C   LIG    1       -3.698  -2.178   0.126  0.00  0.00    +0.060 C 
ENDROOT
BRANCH   1   3
ATOM      2  C   LIG    1       -1.238  -2.224   0.118  0.00  0.00    -0.120 C 
ATOM      3  C   LIG    1       -2.380  -2.909   0.110  0.00  0.00    +0.070 C 
BRANCH   2   4
ATOM      4  C   LIG    1       -1.239  -0.798   0.475  0.00  0.00    +0.400 C 
ATOM      5  O   LIG    1       -2.260  -0.272   0.877  0.00  0.00    -0.460 OA
BRANCH   4   7
ATOM      6  C   LIG    1       -0.007   1.285   0.670  0.00  0.00    +0.120 C 
ATOM      7  C   LIG    1       -0.006  -0.006   0.347  0.00  0.00    -0.100 C 
ENDBRANCH   4   7
ENDBRANCH   2   4
ENDBRANCH   1   3
BRANCH   1   8
ATOM      8  C   LIG    1       -4.648  -2.817  -0.888  0.00  0.00    +0.000 C 
BRANCH   8   9
ATOM      9  C   LIG    1       -5.986  -2.074  -0.871  0.00  0.00    +0.000 C 
BRANCH   9  10
ATOM     10  C   LIG    1       -6.937  -2.713  -1.885  0.00  0.00    +0.000 C 
BRANCH  10  11
ATOM     11  C   LIG    1       -8.274  -1.970  -1.869  0.00  0.00    +0.000 C 
BRANCH  11  12
ATOM     12  C   LIG    1       -9.225  -2.609  -2.883  0.00  0.00    -0.010 C 
ATOM     13  C   LIG    1      -10.563  -1.867  -2.866  0.00  0.00    +0.000 C 
ENDBRANCH  11  12
ENDBRANCH  10  11
ENDBRANCH   9  10
ENDBRANCH   8   9
ENDBRANCH   1   8
TORSDOF 8
ENDMDL
MODEL      136
REMARK  Name = ZINC000059436124
REMARK                            x       y       z     vdW  Elec       q    Type
REMARK                         _______ _______ _______ _____ _____    ______ ____
ROOT
ATOM      1  C   LIG    1       -2.827  -4.123   0.007  0.00  0.00    +0.000 C 
ENDROOT
BRANCH   1   2
ATOM      2  C   LIG    1       -2.848  -2.593   0.015  0.00  0.00    +0.000 C 
BRANCH   2   3
ATOM      3  C   LIG    1       -1.413  -2.063   0.004  0.00  0.00    +0.000 C 
BRANCH   3   4
ATOM      4  C   LIG    1       -1.433  -0.534   0.013  0.00  0.00    +0.000 C 
BRANCH   4   6
ATOM      5  C   LIG    1       -0.019   1.526   0.010  0.00  0.00    +0.000 C 
ATOM      6  C   LIG    1        0.002  -0.004   0.002  0.00  0.00    -0.010 C 
ENDBRANCH   4   6
ENDBRANCH   3   4
ENDBRANCH   2   3
ENDBRANCH   1   2
BRANCH   1   7
ATOM      7  C   LIG    1       -4.263  -4.652   0.018  0.00  0.00    +0.000 C 
BRANCH   7   8
ATOM      8  C   LIG    1       -4.242  -6.182   0.009  0.00  0.00    +0.010 C 
BRANCH   8   9
ATOM      9  C   LIG    1       -5.677  -6.712   0.020  0.00  0.00    +0.040 C 
BRANCH   9  10
ATOM     10  C   LIG    1       -5.657  -8.242   0.012  0.00  0.00    +0.110 C 
ATOM     11  C   LIG    1       -6.998  -8.973  -0.065  0.00  0.00    +0.180 C 
ATOM     12  O   LIG    1       -6.221  -8.921   1.135  0.00  0.00    -0.360 OA
ENDBRANCH   9  10
ENDBRANCH   8   9
ENDBRANCH   7   8
ENDBRANCH   1   7
TORSDOF 8
ENDMDL
MODEL      137
REMARK  Name = ZINC000100072181
REMARK                            x       y       z     vdW  Elec       q    Type
REMARK                         _______ _______ _______ _____ _____    ______ ____
ROOT
ATOM      1  C   LIG    1       -0.887  -1.718  -2.053  0.00  0.00    +0.050 C 
ENDROOT
BRANCH   1   3
ATOM      2  C   LIG    1       -1.397  -0.586   0.050  0.00  0.00    -0.050 C 
ATOM      3  C   LIG    1       -1.839  -1.279  -0.970  0.00  0.00    -0.050 C 
BRANCH   2   5
ATOM      4  C   LIG    1        0.028   1.422   0.342  0.00  0.00    +0.010 C 
ATOM      5  C   LIG    1        0.023  -0.082   0.059  0.00  0.00    +0.040 C 
ENDBRANCH   2   5
ENDBRANCH   1   3
BRANCH   1   6
ATOM      6  C   LIG    1       -1.004  -3.230  -2.252  0.00  0.00    +0.010 C 
BRANCH   6   7
ATOM      7  C   LIG    1       -0.037  -3.675  -3.352  0.00  0.00    +0.000 C 
BRANCH   7   8
ATOM      8  C   LIG    1       -0.153  -5.188  -3.552  0.00  0.00    +0.000 C 
BRANCH   8   9
ATOM      9  C   LIG    1        0.813  -5.633  -4.651  0.00  0.00    -0.010 C 
ATOM     10  C   LIG    1        0.697  -7.145  -4.851  0.00  0.00    +0.000 C 
ENDBRANCH   8   9
ENDBRANCH   7   8
ENDBRANCH   6   7
ENDBRANCH   1   6
TORSDOF 6
ENDMDL
MODEL      138
REMARK  Name = ZINC000100145251
REMARK                            x       y       z     vdW  Elec       q    Type
REMARK                         _______ _______ _______ _____ _____    ______ ____
ROOT
ATOM      1  N   LIG    1        0.051  -2.791   2.363  0.00  0.00    -0.480 NA
ATOM      2  C   LIG    1       -0.733  -3.819   2.522  0.00  0.00    +0.310 C 
ENDROOT
BRANCH   1   8
ATOM      3  C   LIG    1       -0.018   1.503   0.010  0.00  0.00    +0.090 C 
ATOM      4  C   LIG    1        0.002  -0.004   0.002  0.00  0.00    -0.070 A 
ATOM      5  C   LIG    1        0.006  -0.688  -1.201  0.00  0.00    +0.000 A 
ATOM      6  C   LIG    1        0.024  -2.071  -1.218  0.00  0.00    +0.030 A 
ATOM      7  C   LIG    1        0.039  -2.779  -0.034  0.00  0.00    -0.040 A 
ATOM      8  C   LIG    1        0.036  -2.095   1.184  0.00  0.00    +0.080 A 
ATOM      9  C   LIG    1        0.023  -0.699   1.194  0.00  0.00    +0.030 A 
ENDBRANCH   1   8
BRANCH   2  10
ATOM     10  C   LIG    1       -0.716  -4.568   3.790  0.00  0.00    -0.080 A 
ATOM     11  C   LIG    1        0.134  -4.174   4.828  0.00  0.00    +0.060 A 
ATOM     12  C   LIG    1        0.143  -4.879   6.012  0.00  0.00    +0.000 A 
ATOM     13  C   LIG    1       -0.686  -5.975   6.176  0.00  0.00    +0.030 A 
ATOM     14  C   LIG    1       -1.530  -6.372   5.153  0.00  0.00    +0.000 A 
ATOM     15  C   LIG    1       -1.555  -5.672   3.965  0.00  0.00    +0.040 A 
ENDBRANCH   2  10
TORSDOF 2
ENDMDL
MODEL      139
REMARK  Name = ZINC000104115957
REMARK                            x       y       z     vdW  Elec       q    Type
REMARK                         _______ _______ _______ _____ _____    ______ ____
ROOT
ATOM      1  N   LIG    1       -0.068  -0.038   2.394  0.00  0.00    -0.480 NA
ATOM      2  C   LIG    1       -0.069  -0.697   3.519  0.00  0.00    +0.390 C 
ENDROOT
BRANCH   1   9
ATOM      3  C   LIG    1        1.671   0.066   0.149  0.00  0.00    +0.090 C 
ATOM      4  C   LIG    1        0.334  -0.629   0.107  0.00  0.00    -0.100 A 
ATOM      5  C   LIG    1       -0.086  -1.249  -1.051  0.00  0.00    +0.030 A 
ATOM      6  C   LIG    1       -1.314  -1.887  -1.092  0.00  0.00    -0.010 A 
ATOM      7  C   LIG    1       -2.127  -1.908   0.028  0.00  0.00    +0.020 A 
ATOM      8  C   LIG    1       -1.719  -1.292   1.192  0.00  0.00    -0.020 A 
ATOM      9  C   LIG    1       -0.479  -0.651   1.242  0.00  0.00    +0.100 A 
ENDBRANCH   1   9
BRANCH   2  10
ATOM     10  C   LIG    1       -0.056  -2.169   3.509  0.00  0.00    -0.140 A 
ATOM     11  C   LIG    1        0.163  -2.862   2.315  0.00  0.00    +0.040 A 
ATOM     12  C   LIG    1        0.174  -4.241   2.314  0.00  0.00    +0.000 A 
ATOM     13  C   LIG    1       -0.030  -4.939   3.492  0.00  0.00    +0.020 A 
ATOM     14  C   LIG    1       -0.248  -4.260   4.678  0.00  0.00    +0.000 A 
ATOM     15  C   LIG    1       -0.256  -2.881   4.696  0.00  0.00    +0.050 A 
ENDBRANCH   2  10
TORSDOF 2
ENDMDL
MODEL      140
REMARK  Name = ZINC000255004151
REMARK                            x       y       z     vdW  Elec       q    Type
REMARK                         _______ _______ _______ _____ _____    ______ ____
ROOT
ATOM      1  C   LIG    1        2.284  -6.114   3.695  0.00  0.00    +0.050 C 
ATOM      2  C   LIG    1        2.930  -6.640   4.994  0.00  0.00    +0.040 C 
ATOM      3  C   LIG    1        3.743  -7.874   4.528  0.00  0.00    +0.030 C 
ATOM      4  C   LIG    1        4.278  -7.417   3.149  0.00  0.00    +0.050 C 
ATOM      5  C   LIG    1        3.136  -6.614   2.547  0.00  0.00    +0.140 C 
ATOM      6  N   LIG    1        2.933  -6.400   1.302  0.00  0.00    -0.320 NA
ENDROOT
BRANCH   6   7
ATOM      7  O   LIG    1        3.822  -6.934   0.338  0.00  0.00    -0.420 OA
ATOM      8  H   LIG    1        3.587  -6.720  -0.575  0.00  0.00    +0.400 HD
ENDBRANCH   6   7
BRANCH   1   9
ATOM      9  C   LIG    1        2.264  -4.584   3.704  0.00  0.00    +0.020 C 
BRANCH   9  10
ATOM     10  C   LIG    1        1.524  -4.077   2.464  0.00  0.00    +0.010 C 
BRANCH  10  11
ATOM     11  C   LIG    1        1.503  -2.548   2.473  0.00  0.00    +0.000 C 
BRANCH  11  12
ATOM     12  C   LIG    1        0.763  -2.041   1.233  0.00  0.00    +0.000 C 
BRANCH  12  13
ATOM     13  C   LIG    1        0.742  -0.511   1.242  0.00  0.00    +0.000 C 
BRANCH  13  15
ATOM     14  C   LIG    1       -0.019   1.526   0.010  0.00  0.00    +0.000 C 
ATOM     15  C   LIG    1        0.002  -0.004   0.002  0.00  0.00    -0.010 C 
ENDBRANCH  13  15
ENDBRANCH  12  13
ENDBRANCH  11  12
ENDBRANCH  10  11
ENDBRANCH   9  10
ENDBRANCH   1   9
TORSDOF 7
ENDMDL
MODEL      141
REMARK  Name = ZINC000255004152
REMARK                            x       y       z     vdW  Elec       q    Type
REMARK                         _______ _______ _______ _____ _____    ______ ____
ROOT
ATOM      1  C   LIG    1        2.284  -6.114   3.695  0.00  0.00    +0.050 C 
ATOM      2  C   LIG    1        3.123  -6.637   4.880  0.00  0.00    +0.040 C 
ATOM      3  C   LIG    1        2.353  -7.898   5.349  0.00  0.00    +0.030 C 
ATOM      4  C   LIG    1        0.875  -7.474   5.156  0.00  0.00    +0.050 C 
ATOM      5  C   LIG    1        0.880  -6.652   3.879  0.00  0.00    +0.140 C 
ATOM      6  N   LIG    1       -0.117  -6.451   3.103  0.00  0.00    -0.320 NA
ENDROOT
BRANCH   6   7
ATOM      7  O   LIG    1       -1.377  -7.022   3.406  0.00  0.00    -0.420 OA
ATOM      8  H   LIG    1       -2.068  -6.814   2.762  0.00  0.00    +0.400 HD
ENDBRANCH   6   7
BRANCH   1   9
ATOM      9  C   LIG    1        2.264  -4.584   3.704  0.00  0.00    +0.020 C 
BRANCH   9  10
ATOM     10  C   LIG    1        1.524  -4.077   2.464  0.00  0.00    +0.010 C 
BRANCH  10  11
ATOM     11  C   LIG    1        1.503  -2.548   2.473  0.00  0.00    +0.000 C 
BRANCH  11  12
ATOM     12  C   LIG    1        0.763  -2.041   1.233  0.00  0.00    +0.000 C 
BRANCH  12  13
ATOM     13  C   LIG    1        0.742  -0.511   1.242  0.00  0.00    +0.000 C 
BRANCH  13  15
ATOM     14  C   LIG    1       -0.019   1.526   0.010  0.00  0.00    +0.000 C 
ATOM     15  C   LIG    1        0.002  -0.004   0.002  0.00  0.00    -0.010 C 
ENDBRANCH  13  15
ENDBRANCH  12  13
ENDBRANCH  11  12
ENDBRANCH  10  11
ENDBRANCH   9  10
ENDBRANCH   1   9
TORSDOF 7
ENDMDL
MODEL      142
REMARK  Name = ZINC000585142445
REMARK                            x       y       z     vdW  Elec       q    Type
REMARK                         _______ _______ _______ _____ _____    ______ ____
ROOT
ATOM      1  C   LIG    1       -0.754   3.468   1.277  0.00  0.00    -0.070 A 
ATOM      2  C   LIG    1        0.281   4.170   1.865  0.00  0.00    +0.020 A 
ATOM      3  C   LIG    1        0.264   5.552   1.872  0.00  0.00    +0.030 A 
ATOM      4  C   LIG    1       -0.790   6.233   1.293  0.00  0.00    +0.020 A 
ATOM      5  C   LIG    1       -1.827   5.531   0.705  0.00  0.00    -0.030 A 
ATOM      6 CL   LIG    1       -3.151   6.386  -0.024  0.00  0.00    -0.070 Cl
ATOM      7  C   LIG    1       -1.806   4.148   0.692  0.00  0.00    +0.020 A 
ENDROOT
BRANCH   1   8
ATOM      8  C   LIG    1       -0.734   1.961   1.269  0.00  0.00    +0.090 C 
BRANCH   8   9
ATOM      9  C   LIG    1       -0.018   1.468   0.010  0.00  0.00    +0.050 C 
ATOM     10  C   LIG    1       -0.758   1.975  -1.229  0.00  0.00    +0.040 C 
ATOM     11  C   LIG    1        1.417   1.997  -0.001  0.00  0.00    +0.050 C 
BRANCH   9  13
ATOM     12  C   LIG    1        0.018  -1.178  -0.004  0.00  0.00    +0.020 C 
ATOM     13  C   LIG    1        0.002  -0.004   0.002  0.00  0.00    -0.180 C 
ENDBRANCH   9  13
ENDBRANCH   8   9
ENDBRANCH   1   8
TORSDOF 3
ENDMDL
MODEL      143
REMARK  Name = ZINC000585142668
REMARK                            x       y       z     vdW  Elec       q    Type
REMARK                         _______ _______ _______ _____ _____    ______ ____
ROOT
ATOM      1  C   LIG    1       -0.754   3.468   1.277  0.00  0.00    -0.070 A 
ATOM      2  C   LIG    1        0.281   4.170   1.865  0.00  0.00    +0.030 A 
ATOM      3  C   LIG    1        0.263   5.552   1.873  0.00  0.00    +0.020 A 
ATOM      4  C   LIG    1       -0.792   6.233   1.292  0.00  0.00    -0.040 A 
ATOM      5  C   LIG    1       -1.828   5.530   0.704  0.00  0.00    +0.020 A 
ATOM      6 CL   LIG    1       -0.815   7.969   1.302  0.00  0.00    -0.070 Cl
ATOM      7  C   LIG    1       -1.806   4.148   0.692  0.00  0.00    +0.030 A 
ENDROOT
BRANCH   1   8
ATOM      8  C   LIG    1       -0.734   1.961   1.269  0.00  0.00    +0.090 C 
BRANCH   8   9
ATOM      9  C   LIG    1       -0.018   1.468   0.010  0.00  0.00    +0.050 C 
ATOM     10  C   LIG    1       -0.758   1.975  -1.229  0.00  0.00    +0.050 C 
ATOM     11  C   LIG    1        1.417   1.997  -0.001  0.00  0.00    +0.050 C 
BRANCH   9  13
ATOM     12  C   LIG    1        0.018  -1.178  -0.004  0.00  0.00    +0.020 C 
ATOM     13  C   LIG    1        0.002  -0.004   0.002  0.00  0.00    -0.180 C 
ENDBRANCH   9  13
ENDBRANCH   8   9
ENDBRANCH   1   8
TORSDOF 3
ENDMDL
MODEL      144
REMARK  Name = ZINC000585142582
REMARK                            x       y       z     vdW  Elec       q    Type
REMARK                         _______ _______ _______ _____ _____    ______ ____
ROOT
ATOM      1  C   LIG    1       -0.754   3.468   1.277  0.00  0.00    -0.020 C 
ATOM      2  C   LIG    1       -1.906   4.115   1.392  0.00  0.00    +0.000 C 
ENDROOT
BRANCH   2   3
ATOM      3  C   LIG    1       -1.926   5.593   1.400  0.00  0.00    -0.060 A 
ATOM      4  C   LIG    1       -0.735   6.310   1.281  0.00  0.00    +0.000 A 
ATOM      5  C   LIG    1       -0.761   7.690   1.290  0.00  0.00    +0.000 A 
ATOM      6  C   LIG    1       -1.964   8.361   1.416  0.00  0.00    +0.000 A 
ATOM      7  C   LIG    1       -3.148   7.656   1.534  0.00  0.00    +0.000 A 
ATOM      8  C   LIG    1       -3.136   6.276   1.520  0.00  0.00    +0.010 A 
ENDBRANCH   2   3
BRANCH   1   9
ATOM      9  C   LIG    1       -0.734   1.961   1.269  0.00  0.00    +0.070 C 
BRANCH   9  10
ATOM     10  C   LIG    1       -0.018   1.468   0.010  0.00  0.00    +0.050 C 
ATOM     11  C   LIG    1       -0.758   1.975  -1.229  0.00  0.00    +0.050 C 
ATOM     12  C   LIG    1        1.417   1.997  -0.001  0.00  0.00    +0.050 C 
BRANCH  10  14
ATOM     13  C   LIG    1        0.018  -1.178  -0.004  0.00  0.00    +0.020 C 
ATOM     14  C   LIG    1        0.002  -0.004   0.002  0.00  0.00    -0.180 C 
ENDBRANCH  10  14
ENDBRANCH   9  10
ENDBRANCH   1   9
TORSDOF 4
ENDMDL
MODEL      145
REMARK  Name = ZINC000585142616
REMARK                            x       y       z     vdW  Elec       q    Type
REMARK                         _______ _______ _______ _____ _____    ______ ____
ROOT
ATOM      1  C   LIG    1       -0.754   3.468   1.277  0.00  0.00    -0.070 A 
ATOM      2  C   LIG    1        0.226   4.169   1.953  0.00  0.00    +0.030 A 
ATOM      3  C   LIG    1        0.207   5.551   1.961  0.00  0.00    +0.020 A 
ATOM      4  C   LIG    1       -0.792   6.233   1.293  0.00  0.00    +0.020 A 
ATOM      5  C   LIG    1       -1.774   5.533   0.616  0.00  0.00    +0.020 A 
ATOM      6  C   LIG    1       -1.752   4.150   0.603  0.00  0.00    -0.030 A 
ATOM      7 CL   LIG    1       -2.984   3.271  -0.247  0.00  0.00    -0.060 Cl
ENDROOT
BRANCH   1   8
ATOM      8  C   LIG    1       -0.734   1.961   1.269  0.00  0.00    +0.090 C 
BRANCH   8   9
ATOM      9  C   LIG    1       -0.018   1.468   0.010  0.00  0.00    +0.060 C 
ATOM     10  C   LIG    1       -0.758   1.975  -1.229  0.00  0.00    +0.050 C 
ATOM     11  C   LIG    1        1.417   1.997  -0.001  0.00  0.00    +0.050 C 
BRANCH   9  13
ATOM     12  C   LIG    1        0.018  -1.178  -0.004  0.00  0.00    +0.020 C 
ATOM     13  C   LIG    1        0.002  -0.004   0.002  0.00  0.00    -0.180 C 
ENDBRANCH   9  13
ENDBRANCH   8   9
ENDBRANCH   1   8
TORSDOF 3
ENDMDL
MODEL      146
REMARK  Name = ZINC000585143281
REMARK                            x       y       z     vdW  Elec       q    Type
REMARK                         _______ _______ _______ _____ _____    ______ ____
ROOT
ATOM      1  C   LIG    1       -0.844   1.950   1.402  0.00  0.00    +0.040 C 
ENDROOT
BRANCH   1   2
ATOM      2  C   LIG    1       -0.790   3.476   1.312  0.00  0.00    -0.010 C 
ATOM      3  C   LIG    1       -1.862   3.967   0.337  0.00  0.00    +0.010 C 
ATOM      4  C   LIG    1       -1.808   5.494   0.247  0.00  0.00    +0.000 C 
ATOM      5  C   LIG    1       -2.062   6.096   1.630  0.00  0.00    +0.000 C 
ATOM      6  C   LIG    1       -0.991   5.604   2.605  0.00  0.00    +0.000 C 
ATOM      7  C   LIG    1       -1.045   4.078   2.695  0.00  0.00    +0.010 C 
ENDBRANCH   1   2
BRANCH   1   8
ATOM      8  C   LIG    1        0.347   1.444   2.218  0.00  0.00    +0.040 C 
ATOM      9  C   LIG    1        0.406  -0.083   2.143  0.00  0.00    +0.050 C 
ATOM     10  C   LIG    1        1.641   2.033   1.651  0.00  0.00    +0.060 C 
BRANCH   8  12
ATOM     11  C   LIG    1        0.069   2.193   4.741  0.00  0.00    +0.010 C 
ATOM     12  C   LIG    1        0.193   1.861   3.622  0.00  0.00    -0.160 C 
ENDBRANCH   8  12
ENDBRANCH   1   8
TORSDOF 3
ENDMDL
MODEL      147
REMARK  Name = ZINC000116879510
REMARK                            x       y       z     vdW  Elec       q    Type
REMARK                         _______ _______ _______ _____ _____    ______ ____
ROOT
ATOM      1  C   LIG    1        2.132   0.024  -1.268  0.00  0.00    -0.020 C 
ATOM      2  C   LIG    1        3.149  -0.819  -1.382  0.00  0.00    +0.010 C 
ENDROOT
BRANCH   2   3
ATOM      3  C   LIG    1        4.535  -0.307  -1.392  0.00  0.00    -0.060 A 
ATOM      4  C   LIG    1        4.778   1.062  -1.276  0.00  0.00    +0.000 A 
ATOM      5  C   LIG    1        6.075   1.533  -1.287  0.00  0.00    +0.000 A 
ATOM      6  C   LIG    1        7.133   0.651  -1.413  0.00  0.00    +0.000 A 
ATOM      7  C   LIG    1        6.899  -0.707  -1.528  0.00  0.00    +0.000 A 
ATOM      8  C   LIG    1        5.608  -1.192  -1.512  0.00  0.00    +0.010 A 
ENDBRANCH   2   3
BRANCH   1   9
ATOM      9  C   LIG    1        0.718  -0.497  -1.257  0.00  0.00    +0.090 C 
BRANCH   9  11
ATOM     10  C   LIG    1       -0.019   1.526   0.010  0.00  0.00    +0.070 C 
ATOM     11  C   LIG    1        0.002  -0.004   0.002  0.00  0.00    +0.040 C 
ATOM     12  C   LIG    1        0.742  -0.511   1.242  0.00  0.00    +0.070 C 
BRANCH  11  13
ATOM     13  C   LIG    1       -1.379  -0.514   0.013  0.00  0.00    +0.210 C 
ATOM     14  N   LIG    1       -2.445  -0.907   0.021  0.00  0.00    -0.430 NA
ENDBRANCH  11  13
ENDBRANCH   9  11
ENDBRANCH   1   9
TORSDOF 4
ENDMDL
MODEL      148
REMARK  Name = ZINC000118909686
REMARK                            x       y       z     vdW  Elec       q    Type
REMARK                         _______ _______ _______ _____ _____    ______ ____
ROOT
ATOM      1  C   LIG    1        0.666  -0.549  -1.283  0.00  0.00    +0.050 C 
ENDROOT
BRANCH   1   2
ATOM      2  C   LIG    1        2.152  -0.188  -1.294  0.00  0.00    -0.020 C 
ATOM      3  C   LIG    1        2.883  -1.001  -0.223  0.00  0.00    +0.000 C 
ATOM      4  C   LIG    1        4.369  -0.639  -0.234  0.00  0.00    +0.000 C 
ATOM      5  C   LIG    1        4.962  -0.958  -1.609  0.00  0.00    +0.000 C 
ATOM      6  C   LIG    1        4.231  -0.144  -2.679  0.00  0.00    +0.000 C 
ATOM      7  C   LIG    1        2.744  -0.506  -2.668  0.00  0.00    +0.010 C 
ENDBRANCH   1   2
BRANCH   1   9
ATOM      8  C   LIG    1       -1.524  -0.098  -0.168  0.00  0.00    +0.070 C 
ATOM      9  C   LIG    1       -0.011   0.110  -0.080  0.00  0.00    +0.030 C 
ATOM     10  C   LIG    1        0.299   1.608  -0.078  0.00  0.00    +0.070 C 
BRANCH   9  11
ATOM     11  C   LIG    1        0.496  -0.497   1.162  0.00  0.00    +0.220 C 
ATOM     12  N   LIG    1        0.887  -0.966   2.120  0.00  0.00    -0.430 NA
ENDBRANCH   9  11
ENDBRANCH   1   9
TORSDOF 3
ENDMDL
MODEL      149
REMARK  Name = ZINC000585143215
REMARK                            x       y       z     vdW  Elec       q    Type
REMARK                         _______ _______ _______ _____ _____    ______ ____
ROOT
ATOM      1  C   LIG    1       -0.755   3.491   1.277  0.00  0.00    +0.020 C 
ENDROOT
BRANCH   1   2
ATOM      2  C   LIG    1       -0.734   1.961   1.269  0.00  0.00    +0.030 C 
BRANCH   2   3
ATOM      3  C   LIG    1       -0.018   1.468   0.010  0.00  0.00    +0.050 C 
ATOM      4  C   LIG    1       -0.758   1.975  -1.229  0.00  0.00    +0.050 C 
ATOM      5  C   LIG    1        1.417   1.997  -0.001  0.00  0.00    +0.050 C 
BRANCH   3   7
ATOM      6  C   LIG    1        0.018  -1.178  -0.004  0.00  0.00    +0.010 C 
ATOM      7  C   LIG    1        0.002  -0.004   0.002  0.00  0.00    -0.180 C 
ENDBRANCH   3   7
ENDBRANCH   2   3
ENDBRANCH   1   2
BRANCH   1   8
ATOM      8  C   LIG    1       -1.471   3.984   2.536  0.00  0.00    +0.060 C 
BRANCH   8   9
ATOM      9  C   LIG    1       -1.491   5.491   2.544  0.00  0.00    -0.080 A 
ATOM     10  C   LIG    1       -0.456   6.193   3.132  0.00  0.00    +0.000 A 
ATOM     11  C   LIG    1       -0.474   7.575   3.140  0.00  0.00    +0.000 A 
ATOM     12  C   LIG    1       -1.529   8.256   2.559  0.00  0.00    -0.010 A 
ATOM     13  C   LIG    1       -2.564   7.554   1.971  0.00  0.00    +0.000 A 
ATOM     14  C   LIG    1       -2.543   6.171   1.960  0.00  0.00    +0.000 A 
ENDBRANCH   8   9
ENDBRANCH   1   8
TORSDOF 5
ENDMDL
MODEL      150
REMARK  Name = ZINC000002168570
REMARK                            x       y       z     vdW  Elec       q    Type
REMARK                         _______ _______ _______ _____ _____    ______ ____
ROOT
ATOM      1  C   LIG    1        1.523  -4.019   2.465  0.00  0.00    -0.150 C 
ATOM      2  C   LIG    1        1.539  -5.193   2.458  0.00  0.00    -0.150 C 
ENDROOT
BRANCH   2   3
ATOM      3  C   LIG    1        1.558  -6.625   2.450  0.00  0.00    +0.020 A 
ATOM      4  C   LIG    1        0.959  -7.328   1.404  0.00  0.00    +0.030 A 
ATOM      5  C   LIG    1        0.982  -8.708   1.402  0.00  0.00    +0.010 A 
ATOM      6  C   LIG    1        1.597  -9.394   2.434  0.00  0.00    +0.020 A 
ATOM      7  C   LIG    1        2.192  -8.703   3.475  0.00  0.00    +0.010 A 
ATOM      8  C   LIG    1        2.181  -7.323   3.486  0.00  0.00    +0.030 A 
ENDBRANCH   2   3
BRANCH   1   9
ATOM      9  C   LIG    1        1.503  -2.548   2.473  0.00  0.00    +0.170 C 
BRANCH   9  10
ATOM     10  C   LIG    1        0.763  -2.041   1.233  0.00  0.00    +0.020 C 
BRANCH  10  11
ATOM     11  C   LIG    1        0.742  -0.511   1.242  0.00  0.00    +0.000 C 
BRANCH  11  13
ATOM     12  C   LIG    1       -0.019   1.526   0.010  0.00  0.00    +0.000 C 
ATOM     13  C   LIG    1        0.002  -0.004   0.002  0.00  0.00    -0.010 C 
ENDBRANCH  11  13
ENDBRANCH  10  11
ENDBRANCH   9  10
ENDBRANCH   1   9
TORSDOF 5
ENDMDL
MODEL      151
REMARK  Name = ZINC000001685631
REMARK                            x       y       z     vdW  Elec       q    Type
REMARK                         _______ _______ _______ _____ _____    ______ ____
ROOT
ATOM      1  C   LIG    1        2.192  -4.544  -3.791  0.00  0.00    -0.020 C 
ENDROOT
BRANCH   1   2
ATOM      2  C   LIG    1        2.213  -6.074  -3.800  0.00  0.00    +0.130 C 
ATOM      3  C   LIG    1        0.777  -6.603  -3.789  0.00  0.00    +0.060 C 
BRANCH   2   4
ATOM      4  C   LIG    1        2.929  -6.567  -5.058  0.00  0.00    -0.020 C 
ATOM      5  C   LIG    1        2.841  -8.093  -5.130  0.00  0.00    +0.020 C 
ENDBRANCH   2   4
BRANCH   2   6
ATOM      6  O   LIG    1        2.904  -6.547  -2.642  0.00  0.00    -0.560 OA
ATOM      7  H   LIG    1        3.822  -6.250  -2.583  0.00  0.00    +0.370 HD
ENDBRANCH   2   6
ENDBRANCH   1   2
BRANCH   1   8
ATOM      8  C   LIG    1        1.476  -4.051  -2.532  0.00  0.00    +0.010 C 
BRANCH   8   9
ATOM      9  C   LIG    1        1.455  -2.521  -2.524  0.00  0.00    +0.000 C 
BRANCH   9  10
ATOM     10  C   LIG    1        0.739  -2.027  -1.265  0.00  0.00    +0.000 C 
BRANCH  10  11
ATOM     11  C   LIG    1        0.718  -0.497  -1.257  0.00  0.00    +0.000 C 
BRANCH  11  13
ATOM     12  C   LIG    1       -0.019   1.526   0.010  0.00  0.00    +0.000 C 
ATOM     13  C   LIG    1        0.002  -0.004   0.002  0.00  0.00    -0.010 C 
ENDBRANCH  11  13
ENDBRANCH  10  11
ENDBRANCH   9  10
ENDBRANCH   8   9
ENDBRANCH   1   8
TORSDOF 8
ENDMDL
MODEL      152
REMARK  Name = ZINC000002171104
REMARK                            x       y       z     vdW  Elec       q    Type
REMARK                         _______ _______ _______ _____ _____    ______ ____
ROOT
ATOM      1  C   LIG    1        0.528   1.447  -0.043  0.00  0.00    +0.090 C 
ATOM      2  C   LIG    1        0.257  -0.035  -0.026  0.00  0.00    -0.080 A 
ATOM      3  C   LIG    1       -0.015  -0.700  -1.208  0.00  0.00    +0.010 A 
ATOM      4  C   LIG    1       -0.265  -2.062  -1.202  0.00  0.00    +0.020 A 
ATOM      5  C   LIG    1       -0.244  -2.765  -0.016  0.00  0.00    -0.030 A 
ATOM      6  C   LIG    1        0.030  -2.100   1.182  0.00  0.00    +0.080 A 
ATOM      7  C   LIG    1        0.286  -0.726   1.168  0.00  0.00    -0.070 A 
ATOM      8  C   LIG    1        0.583   0.000   2.454  0.00  0.00    +0.100 C 
ENDROOT
BRANCH   6   9
ATOM      9  N   LIG    1        0.053  -2.790   2.361  0.00  0.00    -0.460 NA
ATOM     10  C   LIG    1        0.719  -3.913   2.449  0.00  0.00    +0.360 C 
BRANCH  10  11
ATOM     11  C   LIG    1        0.649  -4.687   3.635  0.00  0.00    -0.010 A 
ATOM     12  C   LIG    1        1.300  -5.880   3.865  0.00  0.00    +0.010 A 
ATOM     13  C   LIG    1        0.944  -6.285   5.161  0.00  0.00    -0.060 A 
ATOM     14  C   LIG    1        0.111  -5.346   5.659  0.00  0.00    +0.200 A 
ATOM     15  O   LIG    1       -0.061  -4.384   4.742  0.00  0.00    -0.150 OA
ENDBRANCH  10  11
ENDBRANCH   6   9
TORSDOF 2
ENDMDL
MODEL      153
REMARK  Name = ZINC000095830628
REMARK                            x       y       z     vdW  Elec       q    Type
REMARK                         _______ _______ _______ _____ _____    ______ ____
ROOT
ATOM      1  C   LIG    1        2.181  -4.537  -3.772  0.00  0.00    -0.110 A 
ATOM      2  C   LIG    1        1.536  -4.773  -4.919  0.00  0.00    -0.060 A 
ATOM      3  S   LIG    1        2.613  -5.311  -6.127  0.00  0.00    +0.250 S 
ATOM      4  C   LIG    1        3.979  -5.206  -5.024  0.00  0.00    -0.170 A 
ATOM      5  C   LIG    1        3.538  -4.764  -3.809  0.00  0.00    +0.100 A 
ENDROOT
BRANCH   4   6
ATOM      6  C   LIG    1        5.336  -5.526  -5.350  0.00  0.00    +0.280 C 
ATOM      7  N   LIG    1        6.413  -5.780  -5.608  0.00  0.00    -0.400 NA
ENDBRANCH   4   6
BRANCH   1   8
ATOM      8  C   LIG    1        1.476  -4.051  -2.532  0.00  0.00    +0.100 C 
BRANCH   8   9
ATOM      9  C   LIG    1        1.455  -2.521  -2.524  0.00  0.00    +0.000 C 
BRANCH   9  10
ATOM     10  C   LIG    1        0.739  -2.027  -1.265  0.00  0.00    +0.000 C 
BRANCH  10  11
ATOM     11  C   LIG    1        0.718  -0.497  -1.257  0.00  0.00    +0.000 C 
BRANCH  11  13
ATOM     12  C   LIG    1       -0.019   1.526   0.010  0.00  0.00    +0.000 C 
ATOM     13  C   LIG    1        0.002  -0.004   0.002  0.00  0.00    -0.010 C 
ENDBRANCH  11  13
ENDBRANCH  10  11
ENDBRANCH   9  10
ENDBRANCH   8   9
ENDBRANCH   1   8
TORSDOF 6
ENDMDL
MODEL      154
REMARK  Name = ZINC000256081511
REMARK                            x       y       z     vdW  Elec       q    Type
REMARK                         _______ _______ _______ _____ _____    ______ ____
ROOT
ATOM      1  N   LIG    1        0.051  -2.791   2.363  0.00  0.00    -0.480 NA
ATOM      2  C   LIG    1       -0.733  -3.819   2.522  0.00  0.00    +0.310 C 
ENDROOT
BRANCH   1   8
ATOM      3  C   LIG    1       -0.018   1.503   0.010  0.00  0.00    +0.090 C 
ATOM      4  C   LIG    1        0.002  -0.004   0.002  0.00  0.00    -0.070 A 
ATOM      5  C   LIG    1        0.006  -0.688  -1.201  0.00  0.00    +0.000 A 
ATOM      6  C   LIG    1        0.024  -2.071  -1.218  0.00  0.00    +0.030 A 
ATOM      7  C   LIG    1        0.039  -2.779  -0.034  0.00  0.00    -0.040 A 
ATOM      8  C   LIG    1        0.036  -2.095   1.184  0.00  0.00    +0.080 A 
ATOM      9  C   LIG    1        0.023  -0.699   1.194  0.00  0.00    +0.030 A 
ENDBRANCH   1   8
BRANCH   2  10
ATOM     10  C   LIG    1       -0.716  -4.568   3.790  0.00  0.00    -0.080 A 
ATOM     11  C   LIG    1        0.134  -4.174   4.828  0.00  0.00    +0.060 A 
ATOM     12  C   LIG    1        0.143  -4.879   6.012  0.00  0.00    +0.000 A 
ATOM     13  C   LIG    1       -0.686  -5.975   6.176  0.00  0.00    +0.030 A 
ATOM     14  C   LIG    1       -1.530  -6.372   5.153  0.00  0.00    +0.000 A 
ATOM     15  C   LIG    1       -1.555  -5.672   3.965  0.00  0.00    +0.040 A 
ENDBRANCH   2  10
TORSDOF 2
ENDMDL
MODEL      155
REMARK  Name = ZINC000104251513
REMARK                            x       y       z     vdW  Elec       q    Type
REMARK                         _______ _______ _______ _____ _____    ______ ____
ROOT
ATOM      1  N   LIG    1        1.447  -2.538   2.291  0.00  0.00    -0.490 NA
ATOM      2  C   LIG    1        0.800  -3.009   3.305  0.00  0.00    +0.200 C 
ATOM      3  C   LIG    1       -0.653  -3.383   3.164  0.00  0.00    +0.080 C 
ENDROOT
BRANCH   2   4
ATOM      4  C   LIG    1        1.484  -3.181   4.601  0.00  0.00    +0.200 C 
ATOM      5  N   LIG    1        0.837  -3.652   5.615  0.00  0.00    -0.500 NA
ATOM      6  C   LIG    1        2.937  -2.807   4.743  0.00  0.00    +0.080 C 
BRANCH   5   7
ATOM      7  C   LIG    1        1.478  -3.711   6.931  0.00  0.00    +0.180 C 
BRANCH   7   8
ATOM      8  C   LIG    1        0.738  -2.788   7.901  0.00  0.00    +0.020 C 
BRANCH   8   9
ATOM      9  C   LIG    1        1.408  -2.849   9.275  0.00  0.00    +0.000 C 
ATOM     10  C   LIG    1        0.668  -1.927  10.245  0.00  0.00    +0.020 C 
ENDBRANCH   8   9
ENDBRANCH   7   8
ENDBRANCH   5   7
ENDBRANCH   2   4
BRANCH   1  11
ATOM     11  C   LIG    1        0.810  -2.490   0.973  0.00  0.00    +0.180 C 
BRANCH  11  12
ATOM     12  C   LIG    1        0.630  -1.032   0.546  0.00  0.00    +0.020 C 
BRANCH  12  14
ATOM     13  C   LIG    1       -0.215   0.475  -1.258  0.00  0.00    +0.020 C 
ATOM     14  C   LIG    1       -0.036  -0.983  -0.831  0.00  0.00    +0.000 C 
ENDBRANCH  12  14
ENDBRANCH  11  12
ENDBRANCH   1  11
TORSDOF 7
ENDMDL
MODEL      156
REMARK  Name = ZINC000104251507
REMARK                            x       y       z     vdW  Elec       q    Type
REMARK                         _______ _______ _______ _____ _____    ______ ____
ROOT
ATOM      1  N   LIG    1        0.527  -2.349   3.055  0.00  0.00    -0.490 NA
ATOM      2  C   LIG    1        0.622  -3.559   3.496  0.00  0.00    +0.150 C 
ATOM      3  C   LIG    1       -0.011  -4.692   2.730  0.00  0.00    +0.080 C 
ENDROOT
BRANCH   2   4
ATOM      4  C   LIG    1        1.351  -3.832   4.749  0.00  0.00    +0.220 C 
ATOM      5  N   LIG    1        0.698  -4.064   5.839  0.00  0.00    -0.490 NA
ATOM      6  C   LIG    1        2.858  -3.840   4.758  0.00  0.00    +0.150 C 
BRANCH   5   7
ATOM      7  C   LIG    1       -0.765  -4.138   5.814  0.00  0.00    +0.170 C 
BRANCH   7   8
ATOM      8  C   LIG    1       -1.210  -5.559   6.168  0.00  0.00    +0.020 C 
BRANCH   8   9
ATOM      9  C   LIG    1       -2.738  -5.636   6.142  0.00  0.00    +0.000 C 
ATOM     10  C   LIG    1       -3.183  -7.057   6.495  0.00  0.00    +0.020 C 
ENDBRANCH   8   9
ENDBRANCH   7   8
ENDBRANCH   5   7
ENDBRANCH   2   4
BRANCH   1  11
ATOM     11  C   LIG    1       -0.285  -2.063   1.869  0.00  0.00    +0.160 C 
BRANCH  11  12
ATOM     12  C   LIG    1       -1.448  -1.146   2.257  0.00  0.00    +0.020 C 
BRANCH  12  14
ATOM     13  C   LIG    1       -3.458   0.070   1.406  0.00  0.00    +0.020 C 
ATOM     14  C   LIG    1       -2.296  -0.847   1.019  0.00  0.00    +0.000 C 
ENDBRANCH  12  14
ENDBRANCH  11  12
ENDBRANCH   1  11
TORSDOF 7
ENDMDL
MODEL      157
REMARK  Name = ZINC000001567707
REMARK                            x       y       z     vdW  Elec       q    Type
REMARK                         _______ _______ _______ _____ _____    ______ ____
ROOT
ATOM      1  C   LIG    1        1.417   1.997  -0.001  0.00  0.00    -0.010 C 
ATOM      2  C   LIG    1        2.134   1.504  -1.260  0.00  0.00    +0.020 C 
ATOM      3  C   LIG    1        1.394   2.011  -2.499  0.00  0.00    +0.010 C 
ATOM      4  C   LIG    1        1.373   3.541  -2.491  0.00  0.00    +0.000 C 
ATOM      5  C   LIG    1        0.657   4.034  -1.232  0.00  0.00    +0.010 C 
ATOM      6  C   LIG    1        1.397   3.527   0.008  0.00  0.00    +0.040 C 
ENDROOT
BRANCH   1   7
ATOM      7  C   LIG    1        2.146   1.498   1.220  0.00  0.00    -0.080 A 
ATOM      8  C   LIG    1        2.663   2.398   2.133  0.00  0.00    +0.010 A 
ATOM      9  C   LIG    1        3.332   1.941   3.253  0.00  0.00    +0.000 A 
ATOM     10  C   LIG    1        3.483   0.582   3.460  0.00  0.00    +0.000 A 
ATOM     11  C   LIG    1        2.966  -0.318   2.548  0.00  0.00    +0.000 A 
ATOM     12  C   LIG    1        2.293   0.140   1.430  0.00  0.00    +0.000 A 
ENDBRANCH   1   7
BRANCH   1  13
ATOM     13  C   LIG    1       -0.018   1.468   0.010  0.00  0.00    +0.200 C 
BRANCH  13  15
ATOM     14  N   LIG    1        0.018  -1.140  -0.004  0.00  0.00    -0.430 NA
ATOM     15  C   LIG    1        0.002  -0.004   0.002  0.00  0.00    +0.210 C 
ENDBRANCH  13  15
ENDBRANCH   1  13
TORSDOF 3
ENDMDL
MODEL      158
REMARK  Name = ZINC000001569626
REMARK                            x       y       z     vdW  Elec       q    Type
REMARK                         _______ _______ _______ _____ _____    ______ ____
ROOT
ATOM      1  C   LIG    1        2.686  -4.827  -4.661  0.00  0.00    -0.150 C 
ATOM      2  C   LIG    1        2.702  -6.001  -4.668  0.00  0.00    -0.130 C 
ENDROOT
BRANCH   2   3
ATOM      3  C   LIG    1        2.722  -7.433  -4.676  0.00  0.00    +0.010 A 
ATOM      4  C   LIG    1        2.133  -8.147  -3.632  0.00  0.00    +0.030 A 
ATOM      5  C   LIG    1        2.155  -9.527  -3.646  0.00  0.00    +0.010 A 
ATOM      6  C   LIG    1        2.759 -10.202  -4.691  0.00  0.00    +0.020 A 
ATOM      7  C   LIG    1        3.344  -9.499  -5.729  0.00  0.00    +0.010 A 
ATOM      8  C   LIG    1        3.325  -8.120  -5.730  0.00  0.00    +0.030 A 
ENDBRANCH   2   3
BRANCH   1   9
ATOM      9  C   LIG    1        2.667  -3.355  -4.653  0.00  0.00    +0.340 C 
BRANCH   9  11
ATOM     10  C   LIG    1        1.428  -2.502  -2.476  0.00  0.00    -0.160 C 
ATOM     11  C   LIG    1        1.978  -2.881  -3.442  0.00  0.00    -0.190 C 
BRANCH  10  12
ATOM     12  C   LIG    1        0.739  -2.027  -1.265  0.00  0.00    +0.170 C 
BRANCH  12  13
ATOM     13  C   LIG    1        0.718  -0.497  -1.257  0.00  0.00    +0.020 C 
BRANCH  13  15
ATOM     14  C   LIG    1       -0.019   1.526   0.010  0.00  0.00    +0.010 C 
ATOM     15  C   LIG    1        0.002  -0.004   0.002  0.00  0.00    -0.010 C 
ENDBRANCH  13  15
ENDBRANCH  12  13
ENDBRANCH  10  12
ENDBRANCH   9  11
ENDBRANCH   1   9
TORSDOF 6
ENDMDL
MODEL      159
REMARK  Name = ZINC000001606045
REMARK                            x       y       z     vdW  Elec       q    Type
REMARK                         _______ _______ _______ _____ _____    ______ ____
ROOT
ATOM      1  C   LIG    1        2.192  -4.544  -3.791  0.00  0.00    +0.000 C 
ENDROOT
BRANCH   1   2
ATOM      2  C   LIG    1        1.476  -4.051  -2.532  0.00  0.00    +0.000 C 
BRANCH   2   3
ATOM      3  C   LIG    1        1.455  -2.521  -2.524  0.00  0.00    +0.000 C 
BRANCH   3   4
ATOM      4  C   LIG    1        0.739  -2.027  -1.265  0.00  0.00    +0.000 C 
BRANCH   4   5
ATOM      5  C   LIG    1        0.718  -0.497  -1.257  0.00  0.00    +0.000 C 
BRANCH   5   7
ATOM      6  C   LIG    1       -0.019   1.526   0.010  0.00  0.00    +0.000 C 
ATOM      7  C   LIG    1        0.002  -0.004   0.002  0.00  0.00    -0.010 C 
ENDBRANCH   5   7
ENDBRANCH   4   5
ENDBRANCH   3   4
ENDBRANCH   2   3
ENDBRANCH   1   2
BRANCH   1   8
ATOM      8  C   LIG    1        2.213  -6.074  -3.800  0.00  0.00    +0.010 C 
BRANCH   8   9
ATOM      9  C   LIG    1        2.929  -6.567  -5.058  0.00  0.00    -0.020 C 
BRANCH   9  10
ATOM     10  C   LIG    1        2.950  -8.097  -5.067  0.00  0.00    +0.200 C 
BRANCH  10  11
ATOM     11  C   LIG    1        3.554  -8.592  -6.383  0.00  0.00    -0.030 C 
ATOM     12  C   LIG    1        3.461 -10.118  -6.445  0.00  0.00    +0.010 C 
ENDBRANCH  10  11
BRANCH  10  13
ATOM     13  O   LIG    1        3.739  -8.569  -3.973  0.00  0.00    -0.560 OA
ATOM     14  H   LIG    1        4.659  -8.271  -3.995  0.00  0.00    +0.370 HD
ENDBRANCH  10  13
ENDBRANCH   9  10
ENDBRANCH   8   9
ENDBRANCH   1   8
TORSDOF 10
ENDMDL
MODEL      160
REMARK  Name = ZINC000001606042
REMARK                            x       y       z     vdW  Elec       q    Type
REMARK                         _______ _______ _______ _____ _____    ______ ____
ROOT
ATOM      1  C   LIG    1       -4.263  -4.652   0.018  0.00  0.00    -0.020 C 
ENDROOT
BRANCH   1   2
ATOM      2  C   LIG    1       -2.827  -4.123   0.007  0.00  0.00    +0.010 C 
BRANCH   2   3
ATOM      3  C   LIG    1       -2.848  -2.593   0.015  0.00  0.00    +0.000 C 
BRANCH   3   4
ATOM      4  C   LIG    1       -1.413  -2.063   0.004  0.00  0.00    +0.000 C 
BRANCH   4   5
ATOM      5  C   LIG    1       -1.433  -0.534   0.013  0.00  0.00    +0.000 C 
BRANCH   5   7
ATOM      6  C   LIG    1       -0.019   1.526   0.010  0.00  0.00    +0.000 C 
ATOM      7  C   LIG    1        0.002  -0.004   0.002  0.00  0.00    -0.010 C 
ENDBRANCH   5   7
ENDBRANCH   4   5
ENDBRANCH   3   4
ENDBRANCH   2   3
ENDBRANCH   1   2
BRANCH   1   8
ATOM      8  C   LIG    1       -4.242  -6.182   0.009  0.00  0.00    +0.200 C 
BRANCH   8   9
ATOM      9  O   LIG    1       -3.654  -6.657   1.222  0.00  0.00    -0.560 OA
ATOM     10  H   LIG    1       -4.125  -6.383   2.021  0.00  0.00    +0.370 HD
ENDBRANCH   8   9
BRANCH   8  11
ATOM     11  C   LIG    1       -5.673  -6.711  -0.105  0.00  0.00    -0.020 C 
BRANCH  11  12
ATOM     12  C   LIG    1       -5.644  -8.235  -0.239  0.00  0.00    +0.010 C 
BRANCH  12  13
ATOM     13  C   LIG    1       -7.075  -8.764  -0.354  0.00  0.00    -0.010 C 
ATOM     14  C   LIG    1       -7.047 -10.288  -0.488  0.00  0.00    +0.000 C 
ENDBRANCH  12  13
ENDBRANCH  11  12
ENDBRANCH   8  11
ENDBRANCH   1   8
TORSDOF 10
ENDMDL
MODEL      161
REMARK  Name = ZINC000001621010
REMARK                            x       y       z     vdW  Elec       q    Type
REMARK                         _______ _______ _______ _____ _____    ______ ____
ROOT
ATOM      1  C   LIG    1        1.503  -2.548   2.473  0.00  0.00    -0.080 C 
ENDROOT
BRANCH   1   2
ATOM      2  C   LIG    1        1.523  -4.054   2.464  0.00  0.00    +0.070 C 
ATOM      3  C   LIG    1        2.664  -4.692   2.450  0.00  0.00    -0.220 C 
ATOM      4  C   LIG    1        3.804  -5.330   2.436  0.00  0.00    -0.060 C 
ATOM      5  C   LIG    1        4.474  -5.705   3.732  0.00  0.00    +0.090 C 
ATOM      6  C   LIG    1        4.450  -5.691   1.123  0.00  0.00    +0.090 C 
ENDBRANCH   1   2
BRANCH   1   7
ATOM      7  C   LIG    1        0.787  -2.054   3.732  0.00  0.00    +0.030 C 
ATOM      8  C   LIG    1       -0.649  -2.584   3.742  0.00  0.00    +0.030 C 
ENDBRANCH   1   7
BRANCH   1   9
ATOM      9  C   LIG    1        2.917  -2.026   2.462  0.00  0.00    +0.440 C 
ATOM     10  O   LIG    1        3.293  -1.321   1.556  0.00  0.00    -0.440 OA
ENDBRANCH   1   9
BRANCH   1  11
ATOM     11  C   LIG    1        0.763  -2.041   1.233  0.00  0.00    +0.040 C 
BRANCH  11  12
ATOM     12  C   LIG    1        0.742  -0.511   1.242  0.00  0.00    +0.010 C 
BRANCH  12  14
ATOM     13  C   LIG    1       -0.019   1.526   0.010  0.00  0.00    +0.000 C 
ATOM     14  C   LIG    1        0.002  -0.004   0.002  0.00  0.00    +0.000 C 
ENDBRANCH  12  14
ENDBRANCH  11  12
ENDBRANCH   1  11
TORSDOF 6
ENDMDL
MODEL      162
REMARK  Name = ZINC000001685632
REMARK                            x       y       z     vdW  Elec       q    Type
REMARK                         _______ _______ _______ _____ _____    ______ ____
ROOT
ATOM      1  C   LIG    1       -4.263  -4.652   0.018  0.00  0.00    +0.010 C 
ENDROOT
BRANCH   1   2
ATOM      2  C   LIG    1       -2.827  -4.123   0.007  0.00  0.00    +0.000 C 
BRANCH   2   3
ATOM      3  C   LIG    1       -2.848  -2.593   0.015  0.00  0.00    +0.000 C 
BRANCH   3   4
ATOM      4  C   LIG    1       -1.413  -2.063   0.004  0.00  0.00    +0.000 C 
BRANCH   4   5
ATOM      5  C   LIG    1       -1.433  -0.534   0.013  0.00  0.00    +0.000 C 
BRANCH   5   7
ATOM      6  C   LIG    1       -0.019   1.526   0.010  0.00  0.00    +0.000 C 
ATOM      7  C   LIG    1        0.002  -0.004   0.002  0.00  0.00    -0.010 C 
ENDBRANCH   5   7
ENDBRANCH   4   5
ENDBRANCH   3   4
ENDBRANCH   2   3
ENDBRANCH   1   2
BRANCH   1   8
ATOM      8  C   LIG    1       -4.242  -6.182   0.009  0.00  0.00    -0.020 C 
BRANCH   8   9
ATOM      9  C   LIG    1       -5.677  -6.712   0.020  0.00  0.00    +0.130 C 
ATOM     10  C   LIG    1       -6.417  -6.205  -1.219  0.00  0.00    +0.060 C 
BRANCH   9  11
ATOM     11  C   LIG    1       -5.657  -8.242   0.012  0.00  0.00    -0.020 C 
ATOM     12  C   LIG    1       -7.088  -8.771  -0.103  0.00  0.00    +0.020 C 
ENDBRANCH   9  11
BRANCH   9  13
ATOM     13  O   LIG    1       -6.346  -6.251   1.196  0.00  0.00    -0.560 OA
ATOM     14  H   LIG    1       -5.931  -6.535   2.022  0.00  0.00    +0.370 HD
ENDBRANCH   9  13
ENDBRANCH   8   9
ENDBRANCH   1   8
TORSDOF 9
ENDMDL
MODEL      163
REMARK  Name = ZINC000001698354
REMARK                            x       y       z     vdW  Elec       q    Type
REMARK                         _______ _______ _______ _____ _____    ______ ____
ROOT
ATOM      1  C   LIG    1       -2.365  -4.416   0.001  0.00  0.00    +0.050 C 
ENDROOT
BRANCH   1   3
ATOM      2  C   LIG    1       -1.242  -2.227   0.002  0.00  0.00    -0.110 C 
ATOM      3  C   LIG    1       -2.385  -2.909   0.009  0.00  0.00    +0.060 C 
BRANCH   2   4
ATOM      4  C   LIG    1       -1.262  -0.757   0.010  0.00  0.00    +0.410 C 
ATOM      5  O   LIG    1       -2.324  -0.163   0.023  0.00  0.00    -0.470 OA
BRANCH   4   7
ATOM      6  C   LIG    1       -0.016   1.327   0.009  0.00  0.00    +0.140 C 
ATOM      7  C   LIG    1        0.002  -0.004   0.002  0.00  0.00    -0.100 C 
ENDBRANCH   4   7
ENDBRANCH   2   4
ENDBRANCH   1   3
BRANCH   1   8
ATOM      8  C   LIG    1       -3.174  -4.943   1.188  0.00  0.00    +0.020 C 
BRANCH   8   9
ATOM      9  C   LIG    1       -3.153  -6.473   1.179  0.00  0.00    +0.000 C 
BRANCH   9  10
ATOM     10  C   LIG    1       -3.962  -7.000   2.366  0.00  0.00    +0.000 C 
BRANCH  10  11
ATOM     11  C   LIG    1       -3.942  -8.530   2.357  0.00  0.00    +0.000 C 
BRANCH  11  12
ATOM     12  C   LIG    1       -4.751  -9.058   3.544  0.00  0.00    -0.010 C 
ATOM     13  C   LIG    1       -4.730 -10.588   3.535  0.00  0.00    +0.000 C 
ENDBRANCH  11  12
ENDBRANCH  10  11
ENDBRANCH   9  10
ENDBRANCH   8   9
ENDBRANCH   1   8
TORSDOF 8
ENDMDL
MODEL      164
REMARK  Name = ZINC000001707990
REMARK                            x       y       z     vdW  Elec       q    Type
REMARK                         _______ _______ _______ _____ _____    ______ ____
ROOT
ATOM      1  C   LIG    1       -2.848  -2.593   0.015  0.00  0.00    -0.050 C 
ENDROOT
BRANCH   1   2
ATOM      2  C   LIG    1       -3.588  -2.086  -1.224  0.00  0.00    +0.010 C 
ATOM      3  C   LIG    1       -2.872  -2.580  -2.483  0.00  0.00    +0.000 C 
ENDBRANCH   1   2
BRANCH   1   4
ATOM      4  C   LIG    1       -3.564  -2.100   1.274  0.00  0.00    +0.010 C 
ATOM      5  C   LIG    1       -2.824  -2.607   2.514  0.00  0.00    +0.000 C 
ENDBRANCH   1   4
BRANCH   1   6
ATOM      6  C   LIG    1       -1.413  -2.063   0.004  0.00  0.00    +0.030 C 
BRANCH   6   7
ATOM      7  C   LIG    1       -1.433  -0.534   0.013  0.00  0.00    +0.020 C 
BRANCH   7   9
ATOM      8  C   LIG    1       -0.019   1.526   0.010  0.00  0.00    +0.000 C 
ATOM      9  C   LIG    1        0.002  -0.004   0.002  0.00  0.00    -0.010 C 
ENDBRANCH   7   9
ENDBRANCH   6   7
ENDBRANCH   1   6
BRANCH   1  10
ATOM     10  C   LIG    1       -2.827  -4.123   0.007  0.00  0.00    +0.190 C 
BRANCH  10  11
ATOM     11  C   LIG    1       -4.208  -4.632   0.017  0.00  0.00    +0.210 C 
ATOM     12  N   LIG    1       -5.274  -5.026   0.025  0.00  0.00    -0.440 NA
ENDBRANCH  10  11
ENDBRANCH   1  10
TORSDOF 7
ENDMDL
MODEL      165
REMARK  Name = ZINC000111749596
REMARK                            x       y       z     vdW  Elec       q    Type
REMARK                         _______ _______ _______ _____ _____    ______ ____
ROOT
ATOM      1  C   LIG    1        2.264  -4.584   3.704  0.00  0.00    -0.020 C 
ENDROOT
BRANCH   1   2
ATOM      2  C   LIG    1        1.524  -4.077   2.464  0.00  0.00    +0.010 C 
BRANCH   2   3
ATOM      3  C   LIG    1        1.503  -2.548   2.473  0.00  0.00    +0.000 C 
BRANCH   3   4
ATOM      4  C   LIG    1        0.763  -2.041   1.233  0.00  0.00    +0.000 C 
BRANCH   4   5
ATOM      5  C   LIG    1        0.742  -0.511   1.242  0.00  0.00    +0.000 C 
BRANCH   5   7
ATOM      6  C   LIG    1       -0.019   1.526   0.010  0.00  0.00    +0.000 C 
ATOM      7  C   LIG    1        0.002  -0.004   0.002  0.00  0.00    -0.010 C 
ENDBRANCH   5   7
ENDBRANCH   4   5
ENDBRANCH   3   4
ENDBRANCH   2   3
ENDBRANCH   1   2
BRANCH   1   8
ATOM      8  C   LIG    1        2.284  -6.114   3.695  0.00  0.00    +0.200 C 
BRANCH   8   9
ATOM      9  O   LIG    1        3.053  -6.574   2.582  0.00  0.00    -0.560 OA
ATOM     10  H   LIG    1        3.973  -6.276   2.589  0.00  0.00    +0.370 HD
ENDBRANCH   8   9
BRANCH   8  11
ATOM     11  C   LIG    1        2.913  -6.623   4.994  0.00  0.00    -0.020 C 
BRANCH  11  12
ATOM     12  C   LIG    1        2.821  -8.149   5.042  0.00  0.00    -0.020 C 
ATOM     13  C   LIG    1        1.352  -8.570   5.112  0.00  0.00    +0.010 C 
ATOM     14  C   LIG    1        3.559  -8.666   6.278  0.00  0.00    +0.000 C 
ENDBRANCH  11  12
ENDBRANCH   8  11
ENDBRANCH   1   8
TORSDOF 9
ENDMDL
MODEL      166
REMARK  Name = ZINC000111749594
REMARK                            x       y       z     vdW  Elec       q    Type
REMARK                         _______ _______ _______ _____ _____    ______ ____
ROOT
ATOM      1  C   LIG    1        2.241  -4.600   3.679  0.00  0.00    -0.020 C 
ENDROOT
BRANCH   1   2
ATOM      2  C   LIG    1        1.592  -4.103   2.386  0.00  0.00    +0.010 C 
BRANCH   2   3
ATOM      3  C   LIG    1        1.568  -2.573   2.382  0.00  0.00    +0.000 C 
BRANCH   3   4
ATOM      4  C   LIG    1        0.919  -2.076   1.089  0.00  0.00    +0.000 C 
BRANCH   4   5
ATOM      5  C   LIG    1        0.895  -0.546   1.085  0.00  0.00    +0.000 C 
BRANCH   5   7
ATOM      6  C   LIG    1        0.222   1.480  -0.211  0.00  0.00    +0.000 C 
ATOM      7  C   LIG    1        0.245  -0.050  -0.207  0.00  0.00    -0.010 C 
ENDBRANCH   5   7
ENDBRANCH   4   5
ENDBRANCH   3   4
ENDBRANCH   2   3
ENDBRANCH   1   2
BRANCH   1   8
ATOM      8  C   LIG    1        2.265  -6.130   3.683  0.00  0.00    +0.200 C 
BRANCH   8   9
ATOM      9  O   LIG    1        0.926  -6.627   3.717  0.00  0.00    -0.560 OA
ATOM     10  H   LIG    1        0.422  -6.347   4.494  0.00  0.00    +0.370 HD
ENDBRANCH   8   9
BRANCH   8  11
ATOM     11  C   LIG    1        3.025  -6.625   4.915  0.00  0.00    -0.020 C 
BRANCH  11  12
ATOM     12  C   LIG    1        3.151  -8.149   4.858  0.00  0.00    -0.020 C 
ATOM     13  C   LIG    1        3.780  -8.658   6.157  0.00  0.00    +0.000 C 
ATOM     14  C   LIG    1        4.035  -8.544   3.674  0.00  0.00    +0.010 C 
ENDBRANCH  11  12
ENDBRANCH   8  11
ENDBRANCH   1   8
TORSDOF 9
ENDMDL
MODEL      167
REMARK  Name = ZINC000002012795
REMARK                            x       y       z     vdW  Elec       q    Type
REMARK                         _______ _______ _______ _____ _____    ______ ____
ROOT
ATOM      1  C   LIG    1       -4.242  -6.159   0.009  0.00  0.00    -0.110 A 
ATOM      2  C   LIG    1       -4.343  -6.845  -1.185  0.00  0.00    +0.030 A 
ATOM      3  C   LIG    1       -4.324  -8.228  -1.193  0.00  0.00    +0.000 A 
ATOM      4  C   LIG    1       -4.205  -8.927  -0.007  0.00  0.00    +0.020 A 
ATOM      5  C   LIG    1       -4.104  -8.246   1.191  0.00  0.00    -0.010 A 
ATOM      6  C   LIG    1       -4.117  -6.859   1.201  0.00  0.00    +0.100 A 
ENDROOT
BRANCH   6   7
ATOM      7  O   LIG    1       -4.017  -6.186   2.378  0.00  0.00    -0.500 OA
ATOM      8  H   LIG    1       -3.108  -5.982   2.639  0.00  0.00    +0.390 HD
ENDBRANCH   6   7
BRANCH   1   9
ATOM      9  C   LIG    1       -4.263  -4.652   0.018  0.00  0.00    +0.070 C 
BRANCH   9  10
ATOM     10  C   LIG    1       -2.827  -4.123   0.007  0.00  0.00    +0.010 C 
BRANCH  10  11
ATOM     11  C   LIG    1       -2.848  -2.593   0.015  0.00  0.00    +0.000 C 
BRANCH  11  12
ATOM     12  C   LIG    1       -1.413  -2.063   0.004  0.00  0.00    +0.000 C 
BRANCH  12  13
ATOM     13  C   LIG    1       -1.433  -0.534   0.013  0.00  0.00    +0.000 C 
BRANCH  13  15
ATOM     14  C   LIG    1       -0.019   1.526   0.010  0.00  0.00    +0.000 C 
ATOM     15  C   LIG    1        0.002  -0.004   0.002  0.00  0.00    -0.010 C 
ENDBRANCH  13  15
ENDBRANCH  12  13
ENDBRANCH  11  12
ENDBRANCH  10  11
ENDBRANCH   9  10
ENDBRANCH   1   9
TORSDOF 7
ENDMDL
MODEL      168
REMARK  Name = ZINC000002023834
REMARK                            x       y       z     vdW  Elec       q    Type
REMARK                         _______ _______ _______ _____ _____    ______ ____
ROOT
ATOM      1  C   LIG    1       -4.263  -4.652   0.018  0.00  0.00    -0.020 C 
ENDROOT
BRANCH   1   2
ATOM      2  C   LIG    1       -2.827  -4.123   0.007  0.00  0.00    +0.010 C 
BRANCH   2   3
ATOM      3  C   LIG    1       -2.848  -2.593   0.015  0.00  0.00    +0.000 C 
BRANCH   3   4
ATOM      4  C   LIG    1       -1.413  -2.063   0.004  0.00  0.00    +0.000 C 
BRANCH   4   5
ATOM      5  C   LIG    1       -1.433  -0.534   0.013  0.00  0.00    +0.000 C 
BRANCH   5   7
ATOM      6  C   LIG    1       -0.019   1.526   0.010  0.00  0.00    +0.000 C 
ATOM      7  C   LIG    1        0.002  -0.004   0.002  0.00  0.00    -0.010 C 
ENDBRANCH   5   7
ENDBRANCH   4   5
ENDBRANCH   3   4
ENDBRANCH   2   3
ENDBRANCH   1   2
BRANCH   1   8
ATOM      8  C   LIG    1       -4.242  -6.182   0.009  0.00  0.00    +0.200 C 
BRANCH   8   9
ATOM      9  O   LIG    1       -3.678  -6.644  -1.220  0.00  0.00    -0.560 OA
ATOM     10  H   LIG    1       -4.163  -6.361  -2.006  0.00  0.00    +0.370 HD
ENDBRANCH   8   9
BRANCH   8  11
ATOM     11  C   LIG    1       -5.670  -6.713   0.146  0.00  0.00    -0.020 C 
BRANCH  11  12
ATOM     12  C   LIG    1       -5.639  -8.238   0.263  0.00  0.00    +0.010 C 
BRANCH  12  13
ATOM     13  C   LIG    1       -7.068  -8.768   0.399  0.00  0.00    -0.010 C 
ATOM     14  C   LIG    1       -7.037 -10.293   0.516  0.00  0.00    +0.000 C 
ENDBRANCH  12  13
ENDBRANCH  11  12
ENDBRANCH   8  11
ENDBRANCH   1   8
TORSDOF 10
ENDMDL
MODEL      169
REMARK  Name = ZINC000002037120
REMARK                            x       y       z     vdW  Elec       q    Type
REMARK                         _______ _______ _______ _____ _____    ______ ____
ROOT
ATOM      1  C   LIG    1        1.505  -2.592   2.514  0.00  0.00    -0.080 C 
ENDROOT
BRANCH   1   2
ATOM      2  C   LIG    1        1.635  -4.090   2.613  0.00  0.00    +0.030 C 
ATOM      3  C   LIG    1        2.815  -4.649   2.548  0.00  0.00    -0.180 C 
ATOM      4  C   LIG    1        3.994  -5.208   2.483  0.00  0.00    -0.070 C 
ATOM      5  C   LIG    1        4.792  -5.434   3.741  0.00  0.00    +0.110 C 
ATOM      6  C   LIG    1        4.557  -5.627   1.149  0.00  0.00    +0.090 C 
ENDBRANCH   1   2
BRANCH   1   7
ATOM      7  C   LIG    1        2.861  -1.986   2.145  0.00  0.00    +0.030 C 
ATOM      8  C   LIG    1        3.256  -2.439   0.738  0.00  0.00    +0.030 C 
ENDBRANCH   1   7
BRANCH   1   9
ATOM      9  C   LIG    1        1.051  -2.038   3.839  0.00  0.00    +0.440 C 
ATOM     10  O   LIG    1        0.013  -1.424   3.914  0.00  0.00    -0.440 OA
ENDBRANCH   1   9
BRANCH   1  11
ATOM     11  C   LIG    1        0.478  -2.240   1.435  0.00  0.00    +0.040 C 
BRANCH  11  12
ATOM     12  C   LIG    1        0.346  -0.719   1.334  0.00  0.00    +0.010 C 
BRANCH  12  14
ATOM     13  C   LIG    1       -0.812   1.154   0.154  0.00  0.00    +0.000 C 
ATOM     14  C   LIG    1       -0.680  -0.366   0.255  0.00  0.00    +0.000 C 
ENDBRANCH  12  14
ENDBRANCH  11  12
ENDBRANCH   1  11
TORSDOF 6
ENDMDL
MODEL      170
REMARK  Name = ZINC000002045863
REMARK                            x       y       z     vdW  Elec       q    Type
REMARK                         _______ _______ _______ _____ _____    ______ ____
ROOT
ATOM      1  C   LIG    1       -4.263  -4.652   0.018  0.00  0.00    +0.010 C 
ENDROOT
BRANCH   1   2
ATOM      2  C   LIG    1       -2.827  -4.123   0.007  0.00  0.00    +0.000 C 
BRANCH   2   3
ATOM      3  C   LIG    1       -2.848  -2.593   0.015  0.00  0.00    +0.000 C 
BRANCH   3   4
ATOM      4  C   LIG    1       -1.413  -2.063   0.004  0.00  0.00    +0.000 C 
BRANCH   4   5
ATOM      5  C   LIG    1       -1.433  -0.534   0.013  0.00  0.00    +0.000 C 
BRANCH   5   7
ATOM      6  C   LIG    1       -0.019   1.526   0.010  0.00  0.00    +0.000 C 
ATOM      7  C   LIG    1        0.002  -0.004   0.002  0.00  0.00    -0.010 C 
ENDBRANCH   5   7
ENDBRANCH   4   5
ENDBRANCH   3   4
ENDBRANCH   2   3
ENDBRANCH   1   2
BRANCH   1   8
ATOM      8  C   LIG    1       -4.242  -6.182   0.009  0.00  0.00    -0.010 C 
BRANCH   8   9
ATOM      9  C   LIG    1       -5.677  -6.712   0.020  0.00  0.00    +0.130 C 
ATOM     10  C   LIG    1       -6.431  -6.119   1.212  0.00  0.00    +0.060 C 
BRANCH   9  11
ATOM     11  C   LIG    1       -5.657  -8.237   0.138  0.00  0.00    -0.020 C 
ATOM     12  C   LIG    1       -7.093  -8.767   0.148  0.00  0.00    +0.020 C 
ENDBRANCH   9  11
BRANCH   9  13
ATOM     13  O   LIG    1       -6.333  -6.336  -1.193  0.00  0.00    -0.560 OA
ATOM     14  H   LIG    1       -5.909  -6.678  -1.991  0.00  0.00    +0.370 HD
ENDBRANCH   9  13
ENDBRANCH   8   9
ENDBRANCH   1   8
TORSDOF 9
ENDMDL
MODEL      171
REMARK  Name = ZINC000002045864
REMARK                            x       y       z     vdW  Elec       q    Type
REMARK                         _______ _______ _______ _____ _____    ______ ____
ROOT
ATOM      1  C   LIG    1        2.192  -4.544  -3.791  0.00  0.00    -0.010 C 
ENDROOT
BRANCH   1   2
ATOM      2  C   LIG    1        2.213  -6.074  -3.800  0.00  0.00    +0.130 C 
ATOM      3  C   LIG    1        2.842  -6.582  -2.501  0.00  0.00    +0.060 C 
BRANCH   2   4
ATOM      4  C   LIG    1        3.036  -6.566  -4.992  0.00  0.00    -0.020 C 
ATOM      5  C   LIG    1        3.056  -8.096  -5.000  0.00  0.00    +0.020 C 
ENDBRANCH   2   4
BRANCH   2   6
ATOM      6  O   LIG    1        0.876  -6.568  -3.907  0.00  0.00    -0.560 OA
ATOM      7  H   LIG    1        0.415  -6.284  -4.708  0.00  0.00    +0.370 HD
ENDBRANCH   2   6
ENDBRANCH   1   2
BRANCH   1   8
ATOM      8  C   LIG    1        1.476  -4.051  -2.532  0.00  0.00    +0.010 C 
BRANCH   8   9
ATOM      9  C   LIG    1        1.455  -2.521  -2.524  0.00  0.00    +0.000 C 
BRANCH   9  10
ATOM     10  C   LIG    1        0.739  -2.027  -1.265  0.00  0.00    +0.000 C 
BRANCH  10  11
ATOM     11  C   LIG    1        0.718  -0.497  -1.257  0.00  0.00    +0.000 C 
BRANCH  11  13
ATOM     12  C   LIG    1       -0.019   1.526   0.010  0.00  0.00    +0.000 C 
ATOM     13  C   LIG    1        0.002  -0.004   0.002  0.00  0.00    -0.010 C 
ENDBRANCH  11  13
ENDBRANCH  10  11
ENDBRANCH   9  10
ENDBRANCH   8   9
ENDBRANCH   1   8
TORSDOF 8
ENDMDL
MODEL      172
REMARK  Name = ZINC000002163867
REMARK                            x       y       z     vdW  Elec       q    Type
REMARK                         _______ _______ _______ _____ _____    ______ ____
ROOT
ATOM      1  C   LIG    1       -0.831   1.657   0.517  0.00  0.00    +0.090 C 
ATOM      2  C   LIG    1       -0.551   0.188   0.337  0.00  0.00    -0.080 A 
ATOM      3  C   LIG    1       -0.466  -0.347  -0.936  0.00  0.00    +0.010 A 
ATOM      4  C   LIG    1       -0.209  -1.696  -1.112  0.00  0.00    +0.030 A 
ATOM      5  C   LIG    1       -0.035  -2.516  -0.018  0.00  0.00    -0.080 A 
ATOM      6  C   LIG    1       -0.119  -1.983   1.272  0.00  0.00    +0.080 A 
ATOM      7  C   LIG    1        0.246  -3.984  -0.211  0.00  0.00    +0.110 C 
ATOM      8  C   LIG    1       -0.374  -0.620   1.441  0.00  0.00    -0.020 A 
ENDROOT
BRANCH   6   9
ATOM      9  N   LIG    1        0.053  -2.790   2.361  0.00  0.00    -0.460 NA
ATOM     10  C   LIG    1        0.857  -2.425   3.326  0.00  0.00    +0.360 C 
BRANCH  10  11
ATOM     11  C   LIG    1        0.951  -3.207   4.505  0.00  0.00    -0.010 A 
ATOM     12  C   LIG    1        1.749  -2.938   5.596  0.00  0.00    +0.010 A 
ATOM     13  C   LIG    1        1.522  -3.969   6.521  0.00  0.00    -0.060 A 
ATOM     14  C   LIG    1        0.616  -4.806   5.971  0.00  0.00    +0.200 A 
ATOM     15  O   LIG    1        0.271  -4.343   4.762  0.00  0.00    -0.150 OA
ENDBRANCH  10  11
ENDBRANCH   6   9
TORSDOF 2
ENDMDL
MODEL      173
REMARK  Name = ZINC000002569858
REMARK                            x       y       z     vdW  Elec       q    Type
REMARK                         _______ _______ _______ _____ _____    ______ ____
ROOT
ATOM      1  C   LIG    1       -4.241  -4.644   0.018  0.00  0.00    -0.050 A 
ATOM      2  C   LIG    1       -4.878  -4.884   1.223  0.00  0.00    +0.010 A 
ATOM      3  C   LIG    1       -6.171  -5.362   1.240  0.00  0.00    +0.060 A 
ATOM      4  C   LIG    1       -6.839  -5.604   0.037  0.00  0.00    -0.040 A 
ATOM      5  C   LIG    1       -6.191  -5.359  -1.175  0.00  0.00    +0.060 A 
ATOM      6  C   LIG    1       -4.899  -4.876  -1.177  0.00  0.00    +0.010 A 
ENDROOT
BRANCH   4   7
ATOM      7  C   LIG    1       -8.182  -6.099   0.048  0.00  0.00    +0.250 C 
ATOM      8  N   LIG    1       -9.248  -6.492   0.056  0.00  0.00    -0.410 NA
ENDBRANCH   4   7
BRANCH   1   9
ATOM      9  C   LIG    1       -2.827  -4.123   0.007  0.00  0.00    +0.070 C 
BRANCH   9  10
ATOM     10  C   LIG    1       -2.848  -2.593   0.015  0.00  0.00    +0.030 C 
BRANCH  10  11
ATOM     11  C   LIG    1       -1.413  -2.063   0.004  0.00  0.00    +0.000 C 
BRANCH  11  12
ATOM     12  C   LIG    1       -1.433  -0.534   0.013  0.00  0.00    +0.000 C 
BRANCH  12  14
ATOM     13  C   LIG    1       -0.019   1.526   0.010  0.00  0.00    +0.000 C 
ATOM     14  C   LIG    1        0.002  -0.004   0.002  0.00  0.00    -0.010 C 
ENDBRANCH  12  14
ENDBRANCH  11  12
ENDBRANCH  10  11
ENDBRANCH   9  10
ENDBRANCH   1   9
TORSDOF 6
ENDMDL
MODEL      174
REMARK  Name = ZINC000002579229
REMARK                            x       y       z     vdW  Elec       q    Type
REMARK                         _______ _______ _______ _____ _____    ______ ____
ROOT
ATOM      1  C   LIG    1        1.428  -2.502  -2.476  0.00  0.00    -0.190 C 
ATOM      2  C   LIG    1        1.978  -2.881  -3.442  0.00  0.00    -0.190 C 
ENDROOT
BRANCH   1   3
ATOM      3  C   LIG    1        0.739  -2.027  -1.265  0.00  0.00    +0.150 C 
BRANCH   3   4
ATOM      4  C   LIG    1        0.718  -0.497  -1.257  0.00  0.00    +0.020 C 
BRANCH   4   6
ATOM      5  C   LIG    1       -0.019   1.526   0.010  0.00  0.00    +0.010 C 
ATOM      6  C   LIG    1        0.002  -0.004   0.002  0.00  0.00    -0.010 C 
ENDBRANCH   4   6
ENDBRANCH   3   4
ENDBRANCH   1   3
BRANCH   2   7
ATOM      7  C   LIG    1        2.667  -3.355  -4.653  0.00  0.00    +0.150 C 
BRANCH   7   8
ATOM      8  C   LIG    1        2.687  -4.885  -4.662  0.00  0.00    +0.020 C 
BRANCH   8   9
ATOM      9  C   LIG    1        3.403  -5.379  -5.920  0.00  0.00    +0.000 C 
BRANCH   9  10
ATOM     10  C   LIG    1        3.424  -6.909  -5.929  0.00  0.00    -0.010 C 
ATOM     11  C   LIG    1        4.140  -7.402  -7.188  0.00  0.00    +0.000 C 
ENDBRANCH   9  10
ENDBRANCH   8   9
ENDBRANCH   7   8
ENDBRANCH   2   7
TORSDOF 7
ENDMDL
MODEL      175
REMARK  Name = ZINC000002579244
REMARK                            x       y       z     vdW  Elec       q    Type
REMARK                         _______ _______ _______ _____ _____    ______ ____
ROOT
ATOM      1  C   LIG    1        2.213  -6.074  -3.800  0.00  0.00    +0.000 C 
ENDROOT
BRANCH   1   2
ATOM      2  C   LIG    1        2.192  -4.544  -3.791  0.00  0.00    +0.000 C 
BRANCH   2   3
ATOM      3  C   LIG    1        1.476  -4.051  -2.532  0.00  0.00    +0.000 C 
BRANCH   3   4
ATOM      4  C   LIG    1        1.455  -2.521  -2.524  0.00  0.00    +0.000 C 
BRANCH   4   5
ATOM      5  C   LIG    1        0.739  -2.027  -1.265  0.00  0.00    +0.000 C 
BRANCH   5   6
ATOM      6  C   LIG    1        0.718  -0.497  -1.257  0.00  0.00    +0.000 C 
BRANCH   6   8
ATOM      7  C   LIG    1       -0.019   1.526   0.010  0.00  0.00    +0.000 C 
ATOM      8  C   LIG    1        0.002  -0.004   0.002  0.00  0.00    -0.010 C 
ENDBRANCH   6   8
ENDBRANCH   5   6
ENDBRANCH   4   5
ENDBRANCH   3   4
ENDBRANCH   2   3
ENDBRANCH   1   2
BRANCH   1   9
ATOM      9  C   LIG    1        2.929  -6.567  -5.058  0.00  0.00    +0.020 C 
BRANCH   9  10
ATOM     10  C   LIG    1        2.950  -8.097  -5.067  0.00  0.00    +0.170 C 
BRANCH  10  11
ATOM     11  C   LIG    1        3.639  -8.572  -6.278  0.00  0.00    -0.150 C 
ATOM     12  C   LIG    1        4.188  -8.950  -7.244  0.00  0.00    -0.200 C 
BRANCH  12  13
ATOM     13  C   LIG    1        4.877  -9.425  -8.455  0.00  0.00    +0.330 C 
BRANCH  13  14
ATOM     14  O   LIG    1        4.896 -10.854  -8.463  0.00  0.00    -0.570 OA
ATOM     15  H   LIG    1        5.336 -11.237  -9.234  0.00  0.00    +0.390 HD
ENDBRANCH  13  14
ENDBRANCH  12  13
ENDBRANCH  10  11
ENDBRANCH   9  10
ENDBRANCH   1   9
TORSDOF 11
ENDMDL
MODEL      176
REMARK  Name = ZINC000138569406
REMARK                            x       y       z     vdW  Elec       q    Type
REMARK                         _______ _______ _______ _____ _____    ______ ____
ROOT
ATOM      1  C   LIG    1       -0.016   1.321   0.009  0.00  0.00    +0.030 C 
ATOM      2  C   LIG    1        0.002  -0.004   0.002  0.00  0.00    -0.070 C 
ATOM      3  C   LIG    1       -1.255  -0.789   0.004  0.00  0.00    -0.050 A 
ATOM      4  C   LIG    1       -2.469  -0.149   0.251  0.00  0.00    +0.010 A 
ATOM      5  C   LIG    1       -3.642  -0.878   0.248  0.00  0.00    +0.000 A 
ATOM      6  C   LIG    1       -3.608  -2.238  -0.000  0.00  0.00    +0.000 A 
ATOM      7  C   LIG    1       -2.406  -2.876  -0.243  0.00  0.00    +0.000 A 
ATOM      8  C   LIG    1       -1.222  -2.160  -0.242  0.00  0.00    -0.070 A 
ATOM      9  C   LIG    1        0.071  -2.885  -0.498  0.00  0.00    +0.080 C 
ATOM     10  C   LIG    1        1.150  -1.931  -1.001  0.00  0.00    +0.030 C 
ATOM     11  C   LIG    1        1.308  -0.771  -0.015  0.00  0.00    -0.030 C 
ATOM     12  C   LIG    1        1.600  -1.315   1.385  0.00  0.00    +0.040 C 
ATOM     13  C   LIG    1        2.448   0.145  -0.466  0.00  0.00    +0.040 C 
ENDROOT
TORSDOF 0
ENDMDL
