MODEL        1
REMARK  Name = ZINC000002566054
REMARK                            x       y       z     vdW  Elec       q    Type
REMARK                         _______ _______ _______ _____ _____    ______ ____
ROOT
ATOM      1  C   LIG    1       -3.974  -4.272  -2.346  0.00  0.00    +0.000 C 
ENDROOT
BRANCH   1   2
ATOM      2  C   LIG    1       -2.659  -3.489  -2.355  0.00  0.00    +0.000 C 
BRANCH   2   3
ATOM      3  C   LIG    1       -2.633  -2.524  -1.168  0.00  0.00    +0.000 C 
BRANCH   3   4
ATOM      4  C   LIG    1       -1.319  -1.741  -1.176  0.00  0.00    +0.000 C 
BRANCH   4   5
ATOM      5  C   LIG    1       -1.293  -0.775   0.010  0.00  0.00    +0.040 C 
BRANCH   5   7
ATOM      6  C   LIG    1       -0.016   1.306   0.009  0.00  0.00    +0.000 C 
ATOM      7  C   LIG    1        0.002  -0.004   0.002  0.00  0.00    -0.040 C 
ENDBRANCH   5   7
ENDBRANCH   4   5
ENDBRANCH   3   4
ENDBRANCH   2   3
ENDBRANCH   1   2
BRANCH   1   8
ATOM      8  C   LIG    1       -4.000  -5.238  -3.533  0.00  0.00    +0.000 C 
BRANCH   8   9
ATOM      9  C   LIG    1       -5.314  -6.021  -3.525  0.00  0.00    -0.020 C 
BRANCH   9  10
ATOM     10  C   LIG    1       -5.340  -6.986  -4.711  0.00  0.00    +0.030 C 
BRANCH  10  11
ATOM     11  C   LIG    1       -6.655  -7.769  -4.703  0.00  0.00    -0.080 C 
BRANCH  11  12
ATOM     12  C   LIG    1       -6.681  -8.720  -5.872  0.00  0.00    +0.490 C 
ATOM     13  O   LIG    1       -7.647  -9.442  -6.049  0.00  0.00    -0.710 OA
ATOM     14  O   LIG    1       -5.735  -8.767  -6.640  0.00  0.00    -0.700 OA
ENDBRANCH  11  12
ENDBRANCH  10  11
ENDBRANCH   9  10
ENDBRANCH   8   9
ENDBRANCH   1   8
TORSDOF 10
ENDMDL
MODEL        2
REMARK  Name = ZINC000032786156
REMARK                            x       y       z     vdW  Elec       q    Type
REMARK                         _______ _______ _______ _____ _____    ______ ____
ROOT
ATOM      1  C   LIG    1        2.181  -4.537  -3.772  0.00  0.00    -0.080 C 
ATOM      2  C   LIG    1        3.199  -5.355  -3.669  0.00  0.00    -0.030 C 
ENDROOT
BRANCH   1   3
ATOM      3  C   LIG    1        1.476  -4.051  -2.532  0.00  0.00    +0.030 C 
BRANCH   3   4
ATOM      4  C   LIG    1        1.455  -2.521  -2.524  0.00  0.00    +0.000 C 
BRANCH   4   5
ATOM      5  C   LIG    1        0.739  -2.027  -1.265  0.00  0.00    +0.000 C 
BRANCH   5   6
ATOM      6  C   LIG    1        0.718  -0.497  -1.257  0.00  0.00    +0.000 C 
BRANCH   6   8
ATOM      7  C   LIG    1       -0.019   1.526   0.010  0.00  0.00    +0.000 C 
ATOM      8  C   LIG    1        0.002  -0.004   0.002  0.00  0.00    -0.010 C 
ENDBRANCH   6   8
ENDBRANCH   5   6
ENDBRANCH   4   5
ENDBRANCH   3   4
ENDBRANCH   1   3
BRANCH   2   9
ATOM      9  C   LIG    1        3.904  -5.841  -4.909  0.00  0.00    +0.030 C 
BRANCH   9  10
ATOM     10  C   LIG    1        5.397  -5.526  -4.802  0.00  0.00    +0.030 C 
BRANCH  10  11
ATOM     11  C   LIG    1        6.114  -6.020  -6.061  0.00  0.00    -0.070 C 
BRANCH  11  12
ATOM     12  C   LIG    1        7.585  -5.710  -5.956  0.00  0.00    +0.490 C 
ATOM     13  O   LIG    1        8.339  -6.022  -6.861  0.00  0.00    -0.710 OA
ATOM     14  O   LIG    1        8.020  -5.146  -4.966  0.00  0.00    -0.700 OA
ENDBRANCH  11  12
ENDBRANCH  10  11
ENDBRANCH   9  10
ENDBRANCH   2   9
TORSDOF 9
ENDMDL
