MODEL        1
REMARK  Name = ZINC000017301438
REMARK                            x       y       z     vdW  Elec       q    Type
REMARK                         _______ _______ _______ _____ _____    ______ ____
ROOT
ATOM      1  C   LIG    1       -2.449  -0.011   0.108  0.00  0.00    +0.380 C 
ATOM      2  N   LIG    1       -2.465   1.281  -0.076  0.00  0.00    -0.490 N 
ATOM      3  H   LIG    1       -1.644   1.750  -0.297  0.00  0.00    +0.440 HD
ATOM      4  C   LIG    1       -3.743  -0.762   0.286  0.00  0.00    +0.200 C 
ENDROOT
BRANCH   2   5
ATOM      5  C   LIG    1       -3.637   1.975   0.043  0.00  0.00    +0.010 A 
ATOM      6  C   LIG    1       -4.388   1.887   1.218  0.00  0.00    +0.040 A 
ATOM      7  C   LIG    1       -5.570   2.590   1.331  0.00  0.00    +0.050 A 
ATOM      8  C   LIG    1       -6.012   3.380   0.284  0.00  0.00    +0.080 A 
ATOM      9  C   LIG    1       -5.273   3.471  -0.883  0.00  0.00    +0.050 A 
ATOM     10  C   LIG    1       -4.087   2.778  -1.008  0.00  0.00    +0.050 A 
ENDBRANCH   2   5
BRANCH   1  13
ATOM     11  C   LIG    1       -0.246   1.133   1.454  0.00  0.00    +0.100 C 
ATOM     12  C   LIG    1       -0.106  -0.168   0.707  0.00  0.00    +0.030 C 
ATOM     13  C   LIG    1       -1.174  -0.730   0.140  0.00  0.00    -0.080 C 
ATOM     14  C   LIG    1        1.242  -0.834   0.599  0.00  0.00    +0.130 C 
ENDBRANCH   1  13
TORSDOF 2
ENDMDL
MODEL        2
REMARK  Name = ZINC000001615305
REMARK                            x       y       z     vdW  Elec       q    Type
REMARK                         _______ _______ _______ _____ _____    ______ ____
ROOT
ATOM      1  C   LIG    1        0.002  -0.004   0.002  0.00  0.00    +0.140 C 
ATOM      2  C   LIG    1        0.020  -1.311  -0.005  0.00  0.00    +0.090 C 
ATOM      3  C   LIG    1        0.036  -2.094   1.289  0.00  0.00    +0.120 C 
ATOM      4  C   LIG    1       -1.085  -3.137   1.242  0.00  0.00    +0.050 C 
ATOM      5  C   LIG    1       -0.928  -3.994  -0.015  0.00  0.00    +0.030 C 
ATOM      6  C   LIG    1       -1.097  -3.123  -1.261  0.00  0.00    +0.050 C 
ATOM      7  C   LIG    1        0.018  -2.080  -1.308  0.00  0.00    +0.120 C 
ATOM      8  N   LIG    1       -0.015   1.246   0.009  0.00  0.00    -0.410 N 
ATOM      9  H   LIG    1        0.819   1.742   0.004  0.00  0.00    +0.440 HD
ENDROOT
BRANCH   8  10
ATOM     10  C   LIG    1       -1.293   1.961   0.019  0.00  0.00    +0.210 C 
ATOM     11  C   LIG    1       -1.793   2.092   1.459  0.00  0.00    +0.030 C 
ATOM     12  C   LIG    1       -3.128   2.839   1.469  0.00  0.00    +0.040 C 
ATOM     13  C   LIG    1       -2.938   4.233   0.866  0.00  0.00    +0.020 C 
ATOM     14  C   LIG    1       -2.438   4.101  -0.574  0.00  0.00    +0.040 C 
ATOM     15  C   LIG    1       -1.103   3.354  -0.584  0.00  0.00    +0.030 C 
ENDBRANCH   8  10
TORSDOF 1
ENDMDL
MODEL        3
REMARK  Name = ZINC000017862355
REMARK                            x       y       z     vdW  Elec       q    Type
REMARK                         _______ _______ _______ _____ _____    ______ ____
ROOT
ATOM      1  N   LIG    1       -2.787  -2.571   0.015  0.00  0.00    -0.540 N 
ATOM      2  C   LIG    1       -3.240  -3.233  -1.000  0.00  0.00    +0.580 C 
ATOM      3  H   LIG    1       -3.358  -2.409   0.783  0.00  0.00    +0.430 HD
ENDROOT
BRANCH   2   4
ATOM      4  C   LIG    1       -4.624  -3.744  -0.989  0.00  0.00    -0.190 A 
ATOM      5  C   LIG    1       -5.450  -3.509   0.112  0.00  0.00    +0.090 A 
ATOM      6  C   LIG    1       -6.743  -3.989   0.116  0.00  0.00    +0.040 A 
ATOM      7  C   LIG    1       -7.223  -4.703  -0.969  0.00  0.00    +0.030 A 
ATOM      8  C   LIG    1       -6.408  -4.939  -2.065  0.00  0.00    +0.040 A 
ATOM      9 CL   LIG    1       -8.851  -5.303  -0.957  0.00  0.00    -0.020 Cl
ATOM     10  C   LIG    1       -5.116  -4.460  -2.083  0.00  0.00    +0.150 A 
ENDBRANCH   2   4
BRANCH   1  11
ATOM     11  C   LIG    1       -1.413  -2.063   0.004  0.00  0.00    +0.300 C 
BRANCH  11  12
ATOM     12  C   LIG    1       -1.433  -0.534   0.013  0.00  0.00    +0.020 C 
BRANCH  12  14
ATOM     13  C   LIG    1       -0.019   1.526   0.010  0.00  0.00    +0.030 C 
ATOM     14  C   LIG    1        0.002  -0.004   0.002  0.00  0.00    +0.020 C 
ENDBRANCH  12  14
ENDBRANCH  11  12
ENDBRANCH   1  11
TORSDOF 4
ENDMDL
MODEL        4
REMARK  Name = ZINC000104370269
REMARK                            x       y       z     vdW  Elec       q    Type
REMARK                         _______ _______ _______ _____ _____    ______ ____
ROOT
ATOM      1  C   LIG    1       -0.417   1.402  -0.427  0.00  0.00    +0.200 C 
ATOM      2  C   LIG    1       -0.194  -0.081  -0.280  0.00  0.00    +0.340 C 
ATOM      3  N   LIG    1       -0.158  -0.828  -1.318  0.00  0.00    -0.520 N 
ATOM      4  H   LIG    1       -0.196  -0.432  -2.203  0.00  0.00    +0.440 HD
ENDROOT
BRANCH   3   5
ATOM      5  C   LIG    1       -0.057  -2.283  -1.171  0.00  0.00    +0.190 C 
ATOM      6  C   LIG    1        1.290  -2.759  -1.719  0.00  0.00    +0.090 C 
BRANCH   5   7
ATOM      7  C   LIG    1       -1.190  -2.953  -1.950  0.00  0.00    +0.070 C 
BRANCH   7   8
ATOM      8  C   LIG    1       -2.535  -2.559  -1.336  0.00  0.00    -0.040 C 
ATOM      9  C   LIG    1       -2.652  -3.163   0.065  0.00  0.00    +0.030 C 
ATOM     10  C   LIG    1       -3.671  -3.085  -2.215  0.00  0.00    +0.030 C 
ENDBRANCH   7   8
ENDBRANCH   5   7
ENDBRANCH   3   5
BRANCH   2  11
ATOM     11  C   LIG    1       -0.015  -0.685   1.089  0.00  0.00    +0.100 C 
BRANCH  11  12
ATOM     12  C   LIG    1        1.478  -0.835   1.389  0.00  0.00    -0.010 C 
ATOM     13  C   LIG    1        1.660  -1.580   2.712  0.00  0.00    +0.050 C 
ATOM     14  C   LIG    1        2.119   0.551   1.491  0.00  0.00    +0.030 C 
ENDBRANCH  11  12
ENDBRANCH   2  11
TORSDOF 5
ENDMDL
MODEL        5
REMARK  Name = ZINC000017311227
REMARK                            x       y       z     vdW  Elec       q    Type
REMARK                         _______ _______ _______ _____ _____    ______ ____
ROOT
ATOM      1  C   LIG    1        0.230   1.138   0.413  0.00  0.00    +0.190 C 
ATOM      2  C   LIG    1       -0.061  -0.338   0.320  0.00  0.00    +0.340 C 
ATOM      3  N   LIG    1       -0.488  -0.837  -0.777  0.00  0.00    -0.520 N 
ATOM      4  H   LIG    1       -0.752  -1.770  -0.815  0.00  0.00    +0.430 HD
ENDROOT
BRANCH   3   5
ATOM      5  C   LIG    1       -0.579  -0.001  -1.977  0.00  0.00    +0.190 C 
ATOM      6  C   LIG    1       -2.048   0.170  -2.370  0.00  0.00    +0.090 C 
BRANCH   5   7
ATOM      7  C   LIG    1        0.181  -0.670  -3.123  0.00  0.00    +0.070 C 
BRANCH   7   8
ATOM      8  C   LIG    1        1.677  -0.689  -2.801  0.00  0.00    -0.040 C 
ATOM      9  C   LIG    1        2.212   0.744  -2.777  0.00  0.00    +0.030 C 
ATOM     10  C   LIG    1        2.419  -1.494  -3.870  0.00  0.00    +0.030 C 
ENDBRANCH   7   8
ENDBRANCH   5   7
ENDBRANCH   3   5
BRANCH   2  11
ATOM     11  C   LIG    1        0.150  -1.225   1.520  0.00  0.00    +0.110 C 
BRANCH  11  12
ATOM     12  C   LIG    1        1.642  -1.282   1.855  0.00  0.00    -0.010 C 
ATOM     13  C   LIG    1        1.873  -2.291   2.982  0.00  0.00    +0.050 C 
ATOM     14  C   LIG    1        2.118   0.101   2.303  0.00  0.00    +0.030 C 
ENDBRANCH  11  12
ENDBRANCH   2  11
TORSDOF 5
ENDMDL
MODEL        6
REMARK  Name = ZINC000017311229
REMARK                            x       y       z     vdW  Elec       q    Type
REMARK                         _______ _______ _______ _____ _____    ______ ____
ROOT
ATOM      1  C   LIG    1        0.204   0.909  -0.389  0.00  0.00    +0.190 C 
ATOM      2  C   LIG    1       -0.000  -0.375   0.373  0.00  0.00    +0.350 C 
ATOM      3  N   LIG    1       -0.246  -1.461  -0.257  0.00  0.00    -0.520 N 
ATOM      4  H   LIG    1       -0.444  -2.273   0.235  0.00  0.00    +0.430 HD
ENDROOT
BRANCH   3   5
ATOM      5  C   LIG    1       -0.229  -1.478  -1.722  0.00  0.00    +0.190 C 
ATOM      6  C   LIG    1        0.937  -2.342  -2.208  0.00  0.00    +0.080 C 
BRANCH   5   7
ATOM      7  C   LIG    1       -1.545  -2.059  -2.241  0.00  0.00    +0.060 C 
BRANCH   7   8
ATOM      8  C   LIG    1       -2.696  -1.118  -1.878  0.00  0.00    -0.040 C 
ATOM      9  C   LIG    1       -4.028  -1.775  -2.247  0.00  0.00    +0.040 C 
ATOM     10  C   LIG    1       -2.543   0.195  -2.649  0.00  0.00    +0.030 C 
ENDBRANCH   7   8
ENDBRANCH   5   7
ENDBRANCH   3   5
BRANCH   2  11
ATOM     11  C   LIG    1        0.086  -0.380   1.878  0.00  0.00    +0.110 C 
BRANCH  11  12
ATOM     12  C   LIG    1        1.528  -0.105   2.307  0.00  0.00    -0.010 C 
ATOM     13  C   LIG    1        1.659  -0.310   3.818  0.00  0.00    +0.050 C 
ATOM     14  C   LIG    1        1.899   1.337   1.954  0.00  0.00    +0.030 C 
ENDBRANCH  11  12
ENDBRANCH   2  11
TORSDOF 5
ENDMDL
MODEL        7
REMARK  Name = ZINC000002044920
REMARK                            x       y       z     vdW  Elec       q    Type
REMARK                         _______ _______ _______ _____ _____    ______ ____
ROOT
ATOM      1  C   LIG    1       -0.314   1.530   0.247  0.00  0.00    +0.200 C 
ATOM      2  C   LIG    1       -0.281   0.025   0.184  0.00  0.00    +0.340 C 
ATOM      3  N   LIG    1        0.249  -0.561  -0.822  0.00  0.00    -0.520 N 
ATOM      4  H   LIG    1        0.515  -0.046  -1.599  0.00  0.00    +0.440 HD
ENDROOT
BRANCH   3   5
ATOM      5  C   LIG    1        0.455  -2.012  -0.800  0.00  0.00    +0.200 C 
ATOM      6  C   LIG    1       -0.501  -2.678  -1.792  0.00  0.00    +0.080 C 
BRANCH   5   7
ATOM      7  C   LIG    1        1.899  -2.329  -1.192  0.00  0.00    +0.070 C 
BRANCH   7   8
ATOM      8  C   LIG    1        2.850  -1.769  -0.132  0.00  0.00    -0.040 C 
ATOM      9  C   LIG    1        4.297  -1.975  -0.585  0.00  0.00    +0.030 C 
ATOM     10  C   LIG    1        2.622  -2.497   1.194  0.00  0.00    +0.030 C 
ENDBRANCH   7   8
ENDBRANCH   5   7
ENDBRANCH   3   5
BRANCH   2  11
ATOM     11  C   LIG    1       -0.873  -0.789   1.305  0.00  0.00    +0.100 C 
BRANCH  11  12
ATOM     12  C   LIG    1       -2.380  -0.533   1.381  0.00  0.00    +0.000 C 
ATOM     13  C   LIG    1       -2.958  -1.251   2.602  0.00  0.00    +0.050 C 
ATOM     14  C   LIG    1       -3.051  -1.063   0.112  0.00  0.00    +0.030 C 
ENDBRANCH  11  12
ENDBRANCH   2  11
TORSDOF 5
ENDMDL
MODEL        8
REMARK  Name = ZINC000043328198
REMARK                            x       y       z     vdW  Elec       q    Type
REMARK                         _______ _______ _______ _____ _____    ______ ____
ROOT
ATOM      1  C   LIG    1        2.213  -6.074  -3.800  0.00  0.00    +0.250 C 
ENDROOT
BRANCH   1   2
ATOM      2  N   LIG    1        2.900  -6.548  -5.008  0.00  0.00    -0.380 N 
ATOM      3  C   LIG    1        2.812  -8.011  -5.078  0.00  0.00    +0.250 C 
ATOM      4  C   LIG    1        3.456  -8.504  -6.375  0.00  0.00    +0.050 C 
ATOM      5  C   LIG    1        4.927  -8.078  -6.403  0.00  0.00    +0.030 C 
ATOM      6  C   LIG    1        5.010  -6.556  -6.255  0.00  0.00    +0.050 C 
ATOM      7  C   LIG    1        4.309  -6.137  -4.961  0.00  0.00    +0.250 C 
ATOM      8  H   LIG    1        2.461  -6.146  -5.823  0.00  0.00    +0.420 HD
ENDBRANCH   1   2
BRANCH   1   9
ATOM      9  C   LIG    1        2.192  -4.544  -3.791  0.00  0.00    +0.030 C 
BRANCH   9  10
ATOM     10  C   LIG    1        1.476  -4.051  -2.532  0.00  0.00    +0.020 C 
BRANCH  10  11
ATOM     11  C   LIG    1        1.455  -2.521  -2.524  0.00  0.00    +0.020 C 
BRANCH  11  12
ATOM     12  C   LIG    1        0.739  -2.027  -1.265  0.00  0.00    +0.000 C 
BRANCH  12  13
ATOM     13  C   LIG    1        0.718  -0.497  -1.257  0.00  0.00    +0.000 C 
BRANCH  13  15
ATOM     14  C   LIG    1       -0.019   1.526   0.010  0.00  0.00    +0.000 C 
ATOM     15  C   LIG    1        0.002  -0.004   0.002  0.00  0.00    -0.010 C 
ENDBRANCH  13  15
ENDBRANCH  12  13
ENDBRANCH  11  12
ENDBRANCH  10  11
ENDBRANCH   9  10
ENDBRANCH   1   9
TORSDOF 7
ENDMDL
MODEL        9
REMARK  Name = ZINC000017301434
REMARK                            x       y       z     vdW  Elec       q    Type
REMARK                         _______ _______ _______ _____ _____    ______ ____
ROOT
ATOM      1  N   LIG    1       -1.664  -1.121  -1.364  0.00  0.00    -0.550 N 
ATOM      2  C   LIG    1       -1.605  -2.353  -1.760  0.00  0.00    +0.380 C 
ATOM      3  C   LIG    1       -1.280  -3.441  -0.822  0.00  0.00    -0.110 C 
ATOM      4  C   LIG    1       -1.439  -4.706  -1.176  0.00  0.00    +0.080 C 
ATOM      5  C   LIG    1       -1.939  -5.125  -2.527  0.00  0.00    +0.110 C 
ATOM      6  C   LIG    1       -2.725  -4.000  -3.199  0.00  0.00    -0.050 C 
ATOM      7  C   LIG    1       -4.019  -3.745  -2.423  0.00  0.00    +0.040 C 
ATOM      8  C   LIG    1       -3.061  -4.398  -4.637  0.00  0.00    +0.070 C 
ATOM      9  C   LIG    1       -1.101  -5.778  -0.173  0.00  0.00    +0.120 C 
ATOM     10  C   LIG    1       -1.874  -2.726  -3.204  0.00  0.00    +0.130 C 
ATOM     11  H   LIG    1       -1.794  -0.410  -2.010  0.00  0.00    +0.440 HD
ENDROOT
BRANCH   1  12
ATOM     12  C   LIG    1       -1.533  -0.803   0.060  0.00  0.00    +0.350 C 
BRANCH  12  14
ATOM     13  C   LIG    1       -0.309   1.294   0.316  0.00  0.00    +0.100 C 
ATOM     14  C   LIG    1       -0.268  -0.015   0.284  0.00  0.00    -0.190 C 
ATOM     15  C   LIG    1        1.044  -0.733   0.472  0.00  0.00    +0.100 C 
ENDBRANCH  12  14
ENDBRANCH   1  12
TORSDOF 2
ENDMDL
MODEL       10
REMARK  Name = ZINC000104359699
REMARK                            x       y       z     vdW  Elec       q    Type
REMARK                         _______ _______ _______ _____ _____    ______ ____
ROOT
ATOM      1  N   LIG    1       -1.664  -1.121  -1.364  0.00  0.00    -0.550 N 
ATOM      2  C   LIG    1       -1.605  -2.353  -1.760  0.00  0.00    +0.380 C 
ATOM      3  C   LIG    1       -1.860  -2.715  -3.165  0.00  0.00    -0.100 C 
ATOM      4  C   LIG    1       -1.583  -3.930  -3.608  0.00  0.00    +0.070 C 
ATOM      5  C   LIG    1       -1.011  -5.011  -2.740  0.00  0.00    +0.110 C 
ATOM      6  C   LIG    1       -0.307  -4.425  -1.518  0.00  0.00    -0.050 C 
ATOM      7  C   LIG    1        0.938  -3.655  -1.965  0.00  0.00    +0.030 C 
ATOM      8  C   LIG    1        0.102  -5.555  -0.571  0.00  0.00    +0.070 C 
ATOM      9  C   LIG    1       -1.854  -4.243  -5.057  0.00  0.00    +0.120 C 
ATOM     10  C   LIG    1       -1.264  -3.471  -0.796  0.00  0.00    +0.130 C 
ATOM     11  H   LIG    1       -1.784  -0.409  -2.011  0.00  0.00    +0.430 HD
ENDROOT
BRANCH   1  12
ATOM     12  C   LIG    1       -1.548  -0.804   0.061  0.00  0.00    +0.350 C 
BRANCH  12  14
ATOM     13  C   LIG    1       -0.323   1.291   0.332  0.00  0.00    +0.110 C 
ATOM     14  C   LIG    1       -0.284  -0.018   0.300  0.00  0.00    -0.190 C 
ATOM     15  C   LIG    1        1.024  -0.738   0.502  0.00  0.00    +0.090 C 
ENDBRANCH  12  14
ENDBRANCH   1  12
TORSDOF 2
ENDMDL
MODEL       11
REMARK  Name = ZINC000100027613
REMARK                            x       y       z     vdW  Elec       q    Type
REMARK                         _______ _______ _______ _____ _____    ______ ____
ROOT
ATOM      1  C   LIG    1        2.213  -6.074  -3.800  0.00  0.00    +0.250 C 
ENDROOT
BRANCH   1   2
ATOM      2  N   LIG    1        2.900  -6.548  -5.008  0.00  0.00    -0.510 N 
ATOM      3  H   LIG    1        3.847  -6.198  -5.015  0.00  0.00    +0.430 HD
ATOM      4  H   LIG    1        2.412  -6.213  -5.826  0.00  0.00    +0.430 HD
BRANCH   2   5
ATOM      5  C   LIG    1        2.920  -8.016  -5.016  0.00  0.00    +0.250 C 
BRANCH   5   6
ATOM      6  C   LIG    1        3.636  -8.510  -6.275  0.00  0.00    +0.030 C 
BRANCH   6   7
ATOM      7  C   LIG    1        3.657 -10.040  -6.284  0.00  0.00    +0.020 C 
ATOM      8  C   LIG    1        4.373 -10.533  -7.542  0.00  0.00    +0.030 C 
ENDBRANCH   6   7
ENDBRANCH   5   6
ENDBRANCH   2   5
ENDBRANCH   1   2
BRANCH   1   9
ATOM      9  C   LIG    1        2.192  -4.544  -3.791  0.00  0.00    +0.030 C 
BRANCH   9  10
ATOM     10  C   LIG    1        1.476  -4.051  -2.532  0.00  0.00    +0.020 C 
BRANCH  10  11
ATOM     11  C   LIG    1        1.455  -2.521  -2.524  0.00  0.00    +0.020 C 
BRANCH  11  12
ATOM     12  C   LIG    1        0.739  -2.027  -1.265  0.00  0.00    +0.000 C 
BRANCH  12  13
ATOM     13  C   LIG    1        0.718  -0.497  -1.257  0.00  0.00    +0.000 C 
BRANCH  13  15
ATOM     14  C   LIG    1       -0.019   1.526   0.010  0.00  0.00    +0.000 C 
ATOM     15  C   LIG    1        0.002  -0.004   0.002  0.00  0.00    -0.010 C 
ENDBRANCH  13  15
ENDBRANCH  12  13
ENDBRANCH  11  12
ENDBRANCH  10  11
ENDBRANCH   9  10
ENDBRANCH   1   9
TORSDOF 10
ENDMDL
MODEL       12
REMARK  Name = ZINC000001702062
REMARK                            x       y       z     vdW  Elec       q    Type
REMARK                         _______ _______ _______ _____ _____    ______ ____
ROOT
ATOM      1  C   LIG    1       -4.242  -6.182   0.009  0.00  0.00    -0.010 C 
ATOM      2  C   LIG    1       -3.613  -6.691   1.308  0.00  0.00    +0.020 C 
ATOM      3  C   LIG    1       -3.592  -8.221   1.300  0.00  0.00    +0.050 C 
ATOM      4  C   LIG    1       -5.023  -8.750   1.185  0.00  0.00    +0.170 C 
ATOM      5  C   LIG    1       -5.652  -8.241  -0.114  0.00  0.00    +0.050 C 
ATOM      6  C   LIG    1       -5.673  -6.711  -0.105  0.00  0.00    +0.020 C 
ENDROOT
BRANCH   4   7
ATOM      7  N   LIG    1       -5.813  -8.277   2.329  0.00  0.00    -0.640 N 
ATOM      8  H   LIG    1       -5.399  -8.612   3.186  0.00  0.00    +0.440 HD
ATOM      9  H   LIG    1       -6.757  -8.626   2.254  0.00  0.00    +0.440 HD
ATOM     10  H   LIG    1       -5.827  -7.268   2.335  0.00  0.00    +0.430 HD
ENDBRANCH   4   7
BRANCH   1  11
ATOM     11  C   LIG    1       -4.263  -4.652   0.018  0.00  0.00    +0.010 C 
BRANCH  11  12
ATOM     12  C   LIG    1       -2.827  -4.123   0.007  0.00  0.00    +0.000 C 
BRANCH  12  13
ATOM     13  C   LIG    1       -2.848  -2.593   0.015  0.00  0.00    +0.000 C 
BRANCH  13  14
ATOM     14  C   LIG    1       -1.413  -2.063   0.004  0.00  0.00    +0.000 C 
BRANCH  14  15
ATOM     15  C   LIG    1       -1.433  -0.534   0.013  0.00  0.00    +0.000 C 
BRANCH  15  17
ATOM     16  C   LIG    1       -0.019   1.526   0.010  0.00  0.00    +0.000 C 
ATOM     17  C   LIG    1        0.002  -0.004   0.002  0.00  0.00    -0.010 C 
ENDBRANCH  15  17
ENDBRANCH  14  15
ENDBRANCH  13  14
ENDBRANCH  12  13
ENDBRANCH  11  12
ENDBRANCH   1  11
TORSDOF 7
ENDMDL
MODEL       13
REMARK  Name = ZINC000005418646
REMARK                            x       y       z     vdW  Elec       q    Type
REMARK                         _______ _______ _______ _____ _____    ______ ____
ROOT
ATOM      1  C   LIG    1        3.048  -5.659   3.247  0.00  0.00    +0.157 C 
ENDROOT
BRANCH   1   2
ATOM      2  N   LIG    1        2.105  -6.760   3.011  0.00  0.00    +0.230 N 
ATOM      3  H   LIG    1        2.356  -7.243   2.162  0.00  0.00    +0.202 HD
ATOM      4  H   LIG    1        1.171  -6.389   2.924  0.00  0.00    +0.202 HD
BRANCH   2   5
ATOM      5  C   LIG    1        2.155  -7.699   4.140  0.00  0.00    +0.129 C 
BRANCH   5   6
ATOM      6  C   LIG    1        1.172  -8.845   3.895  0.00  0.00    +0.051 C 
BRANCH   6   7
ATOM      7  C   LIG    1        1.225  -9.823   5.071  0.00  0.00    +0.005 C 
BRANCH   7   8
ATOM      8  C   LIG    1        0.242 -10.969   4.825  0.00  0.00    -0.003 C 
ATOM      9  C   LIG    1        0.295 -11.947   6.001  0.00  0.00    +0.004 C 
ENDBRANCH   7   8
ENDBRANCH   6   7
ENDBRANCH   5   6
ENDBRANCH   2   5
ENDBRANCH   1   2
BRANCH   1  11
ATOM     10  C   LIG    1        2.756  -3.427   2.303  0.00  0.00    -0.026 C 
ATOM     11  C   LIG    1        2.997  -4.697   2.089  0.00  0.00    +0.019 C 
BRANCH  10  12
ATOM     12  C   LIG    1        2.705  -2.464   1.145  0.00  0.00    +0.027 C 
BRANCH  12  13
ATOM     13  C   LIG    1        1.370  -1.717   1.161  0.00  0.00    +0.008 C 
BRANCH  13  14
ATOM     14  C   LIG    1        1.317  -0.740  -0.015  0.00  0.00    +0.027 C 
BRANCH  14  16
ATOM     15  C   LIG    1       -0.016   1.306   0.009  0.00  0.00    +0.004 C 
ATOM     16  C   LIG    1        0.002  -0.004   0.002  0.00  0.00    -0.034 C 
ENDBRANCH  14  16
ENDBRANCH  13  14
ENDBRANCH  12  13
ENDBRANCH  10  12
ENDBRANCH   1  11
TORSDOF 10
ENDMDL
MODEL       14
REMARK  Name = ZINC000001736105
REMARK                            x       y       z     vdW  Elec       q    Type
REMARK                         _______ _______ _______ _____ _____    ______ ____
ROOT
ATOM      1  C   LIG    1        3.024  -6.621   4.935  0.00  0.00    +0.001 C 
ENDROOT
BRANCH   1   2
ATOM      2  C   LIG    1        2.284  -6.114   3.695  0.00  0.00    +0.000 C 
BRANCH   2   3
ATOM      3  C   LIG    1        2.264  -4.584   3.704  0.00  0.00    +0.000 C 
BRANCH   3   4
ATOM      4  C   LIG    1        1.524  -4.077   2.464  0.00  0.00    +0.000 C 
BRANCH   4   5
ATOM      5  C   LIG    1        1.503  -2.548   2.473  0.00  0.00    -0.000 C 
BRANCH   5   6
ATOM      6  C   LIG    1        0.763  -2.041   1.233  0.00  0.00    -0.000 C 
BRANCH   6   7
ATOM      7  C   LIG    1        0.742  -0.511   1.242  0.00  0.00    -0.000 C 
BRANCH   7   9
ATOM      8  C   LIG    1       -0.019   1.526   0.010  0.00  0.00    +0.004 C 
ATOM      9  C   LIG    1        0.002  -0.004   0.002  0.00  0.00    -0.003 C 
ENDBRANCH   7   9
ENDBRANCH   6   7
ENDBRANCH   5   6
ENDBRANCH   4   5
ENDBRANCH   3   4
ENDBRANCH   2   3
ENDBRANCH   1   2
BRANCH   1  10
ATOM     10  C   LIG    1        3.045  -8.151   4.926  0.00  0.00    +0.012 C 
BRANCH  10  11
ATOM     11  C   LIG    1        3.785  -8.658   6.166  0.00  0.00    +0.123 C 
BRANCH  11  12
ATOM     12  C   LIG    1        3.805 -10.164   6.158  0.00  0.00    +0.234 C 
ATOM     13  N   LIG    1        4.800 -10.809   5.572  0.00  0.00    -0.293 N 
ATOM     14  H   LIG    1        4.813 -11.779   5.567  0.00  0.00    +0.301 HD
ATOM     15  H   LIG    1        5.517 -10.312   5.148  0.00  0.00    +0.301 HD
BRANCH  12  16
ATOM     16  N   LIG    1        2.829 -10.842   6.736  0.00  0.00    -0.254 N 
ATOM     17  H   LIG    1        2.842 -11.812   6.730  0.00  0.00    +0.288 HD
ATOM     18  H   LIG    1        2.099 -10.369   7.165  0.00  0.00    +0.288 HD
ENDBRANCH  12  16
ENDBRANCH  11  12
ENDBRANCH  10  11
ENDBRANCH   1  10
TORSDOF 11
ENDMDL
MODEL       15
REMARK  Name = ZINC000014879983
REMARK                            x       y       z     vdW  Elec       q    Type
REMARK                         _______ _______ _______ _____ _____    ______ ____
ROOT
ATOM      1  C   LIG    1       -2.606  -3.419  -2.308  0.00  0.00    +0.030 C 
ENDROOT
BRANCH   1   2
ATOM      2  C   LIG    1       -2.580  -2.454  -1.121  0.00  0.00    +0.250 C 
BRANCH   2   3
ATOM      3  N   LIG    1       -1.318  -1.702  -1.129  0.00  0.00    -0.510 N 
ATOM      4  H   LIG    1       -0.543  -2.345  -1.057  0.00  0.00    +0.430 HD
ATOM      5  H   LIG    1       -1.243  -1.180  -1.989  0.00  0.00    +0.430 HD
BRANCH   3   6
ATOM      6  C   LIG    1       -1.293  -0.775   0.010  0.00  0.00    +0.300 C 
BRANCH   6   8
ATOM      7  C   LIG    1       -0.016   1.306   0.009  0.00  0.00    +0.130 C 
ATOM      8  C   LIG    1        0.002  -0.004   0.002  0.00  0.00    -0.110 C 
ENDBRANCH   6   8
ENDBRANCH   3   6
ENDBRANCH   2   3
ENDBRANCH   1   2
BRANCH   1   9
ATOM      9  C   LIG    1       -3.920  -4.202  -2.299  0.00  0.00    +0.020 C 
BRANCH   9  10
ATOM     10  C   LIG    1       -3.946  -5.168  -3.486  0.00  0.00    +0.020 C 
BRANCH  10  11
ATOM     11  C   LIG    1       -5.261  -5.951  -3.478  0.00  0.00    +0.000 C 
BRANCH  11  12
ATOM     12  C   LIG    1       -5.287  -6.916  -4.664  0.00  0.00    +0.000 C 
BRANCH  12  13
ATOM     13  C   LIG    1       -6.601  -7.699  -4.656  0.00  0.00    +0.000 C 
BRANCH  13  14
ATOM     14  C   LIG    1       -6.627  -8.665  -5.843  0.00  0.00    +0.000 C 
BRANCH  14  15
ATOM     15  C   LIG    1       -7.942  -9.448  -5.834  0.00  0.00    -0.010 C 
ATOM     16  C   LIG    1       -7.968 -10.413  -7.021  0.00  0.00    +0.000 C 
ENDBRANCH  14  15
ENDBRANCH  13  14
ENDBRANCH  12  13
ENDBRANCH  11  12
ENDBRANCH  10  11
ENDBRANCH   9  10
ENDBRANCH   1   9
TORSDOF 11
ENDMDL
MODEL       16
REMARK  Name = ZINC000025624420
REMARK                            x       y       z     vdW  Elec       q    Type
REMARK                         _______ _______ _______ _____ _____    ______ ____
ROOT
ATOM      1  N   LIG    1        1.284   0.243  -0.649  0.00  0.00    -0.530 N 
ATOM      2  C   LIG    1        2.076   1.150  -0.214  0.00  0.00    +0.360 C 
ATOM      3  C   LIG    1        1.654   2.054   0.920  0.00  0.00    +0.100 C 
ATOM      4  C   LIG    1        1.569   1.240   2.201  0.00  0.00    +0.050 C 
ATOM      5  C   LIG    1        2.993   0.895   2.678  0.00  0.00    +0.020 C 
ATOM      6  C   LIG    1        3.540  -0.257   1.843  0.00  0.00    -0.010 C 
ATOM      7  C   LIG    1        4.736   0.199   0.987  0.00  0.00    +0.010 C 
ATOM      8  C   LIG    1        4.434   1.539   0.321  0.00  0.00    +0.070 C 
ATOM      9  C   LIG    1        3.432   1.323  -0.819  0.00  0.00    +0.110 C 
ATOM     10  H   LIG    1        1.530  -0.283  -1.426  0.00  0.00    +0.430 HD
ENDROOT
BRANCH   1  12
ATOM     11  C   LIG    1       -0.519   1.313   0.610  0.00  0.00    +0.080 C 
ATOM     12  C   LIG    1        0.008  -0.000   0.028  0.00  0.00    +0.110 C 
ATOM     13  C   LIG    1       -1.004  -0.555  -0.977  0.00  0.00    +0.090 C 
ATOM     14  C   LIG    1        0.213  -1.012   1.157  0.00  0.00    +0.090 C 
ENDBRANCH   1  12
TORSDOF 1
ENDMDL
MODEL       17
REMARK  Name = ZINC000223791682
REMARK                            x       y       z     vdW  Elec       q    Type
REMARK                         _______ _______ _______ _____ _____    ______ ____
ROOT
ATOM      1  P   LIG    1        0.967  -1.008  -1.685  0.00  0.00    +2.280 P 
ATOM      2  C   LIG    1        0.596  -2.728  -1.211  0.00  0.00    -0.310 C 
ATOM      3  C   LIG    1        2.659  -0.915  -2.358  0.00  0.00    -0.310 C 
ENDROOT
BRANCH   1   5
ATOM      4  C   LIG    1        1.480   1.423  -0.522  0.00  0.00    +0.080 C 
ATOM      5  C   LIG    1        0.837   0.068  -0.219  0.00  0.00    -0.580 C 
ATOM      6  C   LIG    1       -0.638   0.272   0.135  0.00  0.00    +0.100 C 
ATOM      7  C   LIG    1        1.558  -0.587   0.961  0.00  0.00    +0.090 C 
ENDBRANCH   1   5
BRANCH   1   8
ATOM      8  C   LIG    1       -0.222  -0.456  -2.951  0.00  0.00    -0.580 C 
ATOM      9  C   LIG    1       -1.640  -0.835  -2.519  0.00  0.00    +0.090 C 
ATOM     10  C   LIG    1        0.102  -1.133  -4.285  0.00  0.00    +0.090 C 
ATOM     11  C   LIG    1       -0.127   1.062  -3.114  0.00  0.00    +0.100 C 
ENDBRANCH   1   8
TORSDOF 2
ENDMDL
MODEL       18
REMARK  Name = ZINC000100719250
REMARK                            x       y       z     vdW  Elec       q    Type
REMARK                         _______ _______ _______ _____ _____    ______ ____
ROOT
ATOM      1  P   LIG    1       -3.123  -2.695   0.017  0.00  0.00    +2.240 P 
ENDROOT
BRANCH   1   2
ATOM      2  C   LIG    1       -3.098  -4.517   0.007  0.00  0.00    -0.390 C 
ATOM      3  C   LIG    1       -4.534  -5.047   0.018  0.00  0.00    +0.090 C 
ENDBRANCH   1   2
BRANCH   1   4
ATOM      4  C   LIG    1       -4.005  -2.091  -1.460  0.00  0.00    -0.390 C 
ATOM      5  C   LIG    1       -3.288  -2.584  -2.718  0.00  0.00    +0.090 C 
ENDBRANCH   1   4
BRANCH   1   6
ATOM      6  C   LIG    1       -3.976  -2.107   1.517  0.00  0.00    -0.390 C 
ATOM      7  C   LIG    1       -3.236  -2.613   2.757  0.00  0.00    +0.090 C 
ENDBRANCH   1   6
BRANCH   1   8
ATOM      8  C   LIG    1       -1.413  -2.063   0.004  0.00  0.00    -0.390 C 
BRANCH   8   9
ATOM      9  C   LIG    1       -1.433  -0.534   0.013  0.00  0.00    +0.030 C 
BRANCH   9  11
ATOM     10  C   LIG    1       -0.019   1.526   0.010  0.00  0.00    +0.030 C 
ATOM     11  C   LIG    1        0.002  -0.004   0.002  0.00  0.00    +0.020 C 
ENDBRANCH   9  11
ENDBRANCH   8   9
ENDBRANCH   1   8
TORSDOF 6
ENDMDL
MODEL       19
REMARK  Name = ZINC000104059805
REMARK                            x       y       z     vdW  Elec       q    Type
REMARK                         _______ _______ _______ _____ _____    ______ ____
ROOT
ATOM      1  N   LIG    1       -4.243  -6.121   0.010  0.00  0.00    -0.510 N 
ATOM      2  H   LIG    1       -3.755  -6.456   0.827  0.00  0.00    +0.430 HD
ATOM      3  H   LIG    1       -3.770  -6.447  -0.821  0.00  0.00    +0.430 HD
ENDROOT
BRANCH   1   4
ATOM      4  C   LIG    1       -5.621  -6.630   0.020  0.00  0.00    +0.210 C 
ATOM      5  C   LIG    1       -6.285  -6.242   1.309  0.00  0.00    -0.110 C 
ATOM      6  C   LIG    1       -7.036  -7.033   2.005  0.00  0.00    +0.070 C 
ATOM      7  C   LIG    1       -7.341  -8.453   1.625  0.00  0.00    +0.060 C 
ATOM      8  C   LIG    1       -7.013  -8.685   0.148  0.00  0.00    +0.050 C 
ATOM      9  C   LIG    1       -5.600  -8.153  -0.121  0.00  0.00    +0.040 C 
ENDBRANCH   1   4
BRANCH   1  10
ATOM     10  C   LIG    1       -4.263  -4.652   0.018  0.00  0.00    +0.250 C 
BRANCH  10  11
ATOM     11  C   LIG    1       -2.827  -4.123   0.007  0.00  0.00    +0.030 C 
BRANCH  11  12
ATOM     12  C   LIG    1       -2.848  -2.593   0.015  0.00  0.00    +0.020 C 
BRANCH  12  13
ATOM     13  C   LIG    1       -1.413  -2.063   0.004  0.00  0.00    +0.020 C 
BRANCH  13  14
ATOM     14  C   LIG    1       -1.433  -0.534   0.013  0.00  0.00    +0.000 C 
BRANCH  14  16
ATOM     15  C   LIG    1       -0.019   1.526   0.010  0.00  0.00    +0.000 C 
ATOM     16  C   LIG    1        0.002  -0.004   0.002  0.00  0.00    -0.010 C 
ENDBRANCH  14  16
ENDBRANCH  13  14
ENDBRANCH  12  13
ENDBRANCH  11  12
ENDBRANCH  10  11
ENDBRANCH   1  10
TORSDOF 7
ENDMDL
MODEL       20
REMARK  Name = ZINC000104059800
REMARK                            x       y       z     vdW  Elec       q    Type
REMARK                         _______ _______ _______ _____ _____    ______ ____
ROOT
ATOM      1  N   LIG    1       -4.243  -6.121   0.010  0.00  0.00    -0.510 N 
ATOM      2  H   LIG    1       -3.755  -6.456   0.827  0.00  0.00    +0.430 HD
ATOM      3  H   LIG    1       -3.770  -6.447  -0.821  0.00  0.00    +0.430 HD
ENDROOT
BRANCH   1   4
ATOM      4  C   LIG    1       -5.621  -6.630   0.020  0.00  0.00    +0.210 C 
ATOM      5  C   LIG    1       -6.309  -6.228  -1.252  0.00  0.00    -0.110 C 
ATOM      6  C   LIG    1       -7.074  -7.012  -1.941  0.00  0.00    +0.070 C 
ATOM      7  C   LIG    1       -7.372  -8.435  -1.571  0.00  0.00    +0.060 C 
ATOM      8  C   LIG    1       -7.016  -8.684  -0.103  0.00  0.00    +0.050 C 
ATOM      9  C   LIG    1       -5.598  -8.155   0.144  0.00  0.00    +0.040 C 
ENDBRANCH   1   4
BRANCH   1  10
ATOM     10  C   LIG    1       -4.263  -4.652   0.018  0.00  0.00    +0.250 C 
BRANCH  10  11
ATOM     11  C   LIG    1       -2.827  -4.123   0.007  0.00  0.00    +0.030 C 
BRANCH  11  12
ATOM     12  C   LIG    1       -2.848  -2.593   0.015  0.00  0.00    +0.020 C 
BRANCH  12  13
ATOM     13  C   LIG    1       -1.413  -2.063   0.004  0.00  0.00    +0.020 C 
BRANCH  13  14
ATOM     14  C   LIG    1       -1.433  -0.534   0.013  0.00  0.00    +0.000 C 
BRANCH  14  16
ATOM     15  C   LIG    1       -0.019   1.526   0.010  0.00  0.00    +0.000 C 
ATOM     16  C   LIG    1        0.002  -0.004   0.002  0.00  0.00    -0.010 C 
ENDBRANCH  14  16
ENDBRANCH  13  14
ENDBRANCH  12  13
ENDBRANCH  11  12
ENDBRANCH  10  11
ENDBRANCH   1  10
TORSDOF 7
ENDMDL
MODEL       21
REMARK  Name = ZINC000104153285
REMARK                            x       y       z     vdW  Elec       q    Type
REMARK                         _______ _______ _______ _____ _____    ______ ____
ROOT
ATOM      1  N   LIG    1       -2.856  -2.390  -0.074  0.00  0.00    -0.550 N 
ATOM      2  C   LIG    1       -3.271  -3.148  -1.036  0.00  0.00    +0.590 C 
ATOM      3  H   LIG    1       -3.227  -2.490   0.817  0.00  0.00    +0.450 HD
ENDROOT
BRANCH   2   4
ATOM      4  C   LIG    1       -2.407  -3.396  -2.207  0.00  0.00    -0.190 A 
ATOM      5  C   LIG    1       -1.041  -3.108  -2.143  0.00  0.00    +0.090 A 
ATOM      6  C   LIG    1       -0.239  -3.342  -3.240  0.00  0.00    +0.040 A 
ATOM      7  C   LIG    1       -0.784  -3.860  -4.403  0.00  0.00    +0.030 A 
ATOM      8  C   LIG    1       -2.138  -4.146  -4.472  0.00  0.00    +0.040 A 
ATOM      9 CL   LIG    1        0.233  -4.151  -5.779  0.00  0.00    -0.020 Cl
ATOM     10  C   LIG    1       -2.950  -3.923  -3.380  0.00  0.00    +0.150 A 
ENDBRANCH   2   4
BRANCH   1  11
ATOM     11  C   LIG    1       -1.824  -1.382  -0.329  0.00  0.00    +0.280 C 
BRANCH  11  12
ATOM     12  C   LIG    1       -2.323  -0.013   0.137  0.00  0.00    +0.020 C 
BRANCH  12  14
ATOM     13  C   LIG    1       -1.745   2.410   0.336  0.00  0.00    +0.030 C 
ATOM     14  C   LIG    1       -1.246   1.041  -0.130  0.00  0.00    +0.020 C 
ENDBRANCH  12  14
ENDBRANCH  11  12
ENDBRANCH   1  11
TORSDOF 4
ENDMDL
MODEL       22
REMARK  Name = ZINC000104359711
REMARK                            x       y       z     vdW  Elec       q    Type
REMARK                         _______ _______ _______ _____ _____    ______ ____
ROOT
ATOM      1  C   LIG    1       -2.373  -0.256  -0.494  0.00  0.00    +0.370 C 
ATOM      2  N   LIG    1       -2.418   0.992  -0.873  0.00  0.00    -0.500 N 
ATOM      3  H   LIG    1       -3.268   1.459  -0.906  0.00  0.00    +0.440 HD
ATOM      4  C   LIG    1       -3.630  -0.949  -0.035  0.00  0.00    +0.200 C 
ENDROOT
BRANCH   2   5
ATOM      5  C   LIG    1       -1.266   1.642  -1.223  0.00  0.00    +0.020 A 
ATOM      6  C   LIG    1       -0.255   1.836  -0.279  0.00  0.00    +0.040 A 
ATOM      7  C   LIG    1        0.904   2.491  -0.639  0.00  0.00    +0.050 A 
ATOM      8  C   LIG    1        1.065   2.957  -1.932  0.00  0.00    +0.060 A 
ATOM      9  C   LIG    1        0.068   2.769  -2.872  0.00  0.00    +0.050 A 
ATOM     10  C   LIG    1       -1.093   2.110  -2.528  0.00  0.00    +0.050 A 
ENDBRANCH   2   5
BRANCH   1  13
ATOM     11  C   LIG    1       -2.365  -3.054  -0.103  0.00  0.00    +0.120 C 
ATOM     12  C   LIG    1       -1.076  -2.287  -0.241  0.00  0.00    +0.080 C 
ATOM     13  C   LIG    1       -1.102  -0.982  -0.514  0.00  0.00    -0.110 C 
ATOM     14  C   LIG    1        0.244  -2.995  -0.071  0.00  0.00    +0.140 C 
ENDBRANCH   1  13
TORSDOF 2
ENDMDL
MODEL       23
REMARK  Name = ZINC000105727248
REMARK                            x       y       z     vdW  Elec       q    Type
REMARK                         _______ _______ _______ _____ _____    ______ ____
ROOT
ATOM      1  C   LIG    1        2.213  -6.074  -3.800  0.00  0.00    +0.300 C 
ENDROOT
BRANCH   1   2
ATOM      2  C   LIG    1        2.808  -6.561  -5.096  0.00  0.00    -0.110 A 
ATOM      3  C   LIG    1        2.116  -7.000  -6.163  0.00  0.00    +0.030 A 
ATOM      4  C   LIG    1        3.066  -7.355  -7.148  0.00  0.00    -0.050 A 
ATOM      5  C   LIG    1        4.280  -7.111  -6.625  0.00  0.00    +0.230 A 
ATOM      6  O   LIG    1        4.118  -6.625  -5.384  0.00  0.00    -0.180 OA
ENDBRANCH   1   2
BRANCH   1   7
ATOM      7  N   LIG    1        3.025  -6.559  -2.675  0.00  0.00    -0.640 N 
ATOM      8  H   LIG    1        3.967  -6.209  -2.765  0.00  0.00    +0.440 HD
ATOM      9  H   LIG    1        3.038  -7.568  -2.681  0.00  0.00    +0.440 HD
ATOM     10  H   LIG    1        2.626  -6.232  -1.808  0.00  0.00    +0.440 HD
ENDBRANCH   1   7
BRANCH   1  11
ATOM     11  C   LIG    1        2.192  -4.544  -3.791  0.00  0.00    +0.060 C 
BRANCH  11  12
ATOM     12  C   LIG    1        1.476  -4.051  -2.532  0.00  0.00    +0.010 C 
BRANCH  12  13
ATOM     13  C   LIG    1        1.455  -2.521  -2.524  0.00  0.00    +0.020 C 
BRANCH  13  14
ATOM     14  C   LIG    1        0.739  -2.027  -1.265  0.00  0.00    +0.000 C 
BRANCH  14  15
ATOM     15  C   LIG    1        0.718  -0.497  -1.257  0.00  0.00    +0.000 C 
BRANCH  15  17
ATOM     16  C   LIG    1       -0.019   1.526   0.010  0.00  0.00    +0.000 C 
ATOM     17  C   LIG    1        0.002  -0.004   0.002  0.00  0.00    -0.010 C 
ENDBRANCH  15  17
ENDBRANCH  14  15
ENDBRANCH  13  14
ENDBRANCH  12  13
ENDBRANCH  11  12
ENDBRANCH   1  11
TORSDOF 8
ENDMDL
MODEL       24
REMARK  Name = ZINC000105727252
REMARK                            x       y       z     vdW  Elec       q    Type
REMARK                         _______ _______ _______ _____ _____    ______ ____
ROOT
ATOM      1  C   LIG    1        2.213  -6.074  -3.800  0.00  0.00    +0.300 C 
ENDROOT
BRANCH   1   2
ATOM      2  C   LIG    1        3.023  -6.559  -4.974  0.00  0.00    -0.110 A 
ATOM      3  C   LIG    1        4.297  -6.988  -4.927  0.00  0.00    +0.030 A 
ATOM      4  C   LIG    1        4.659  -7.344  -6.247  0.00  0.00    -0.050 A 
ATOM      5  C   LIG    1        3.583  -7.112  -7.021  0.00  0.00    +0.230 A 
ATOM      6  O   LIG    1        2.594  -6.641  -6.244  0.00  0.00    -0.180 OA
ENDBRANCH   1   2
BRANCH   1   7
ATOM      7  N   LIG    1        0.839  -6.582  -3.910  0.00  0.00    -0.640 N 
ATOM      8  H   LIG    1        0.424  -6.246  -4.766  0.00  0.00    +0.440 HD
ATOM      9  H   LIG    1        0.296  -6.257  -3.124  0.00  0.00    +0.440 HD
ATOM     10  H   LIG    1        0.852  -7.590  -3.916  0.00  0.00    +0.440 HD
ENDBRANCH   1   7
BRANCH   1  11
ATOM     11  C   LIG    1        2.192  -4.544  -3.791  0.00  0.00    +0.060 C 
BRANCH  11  12
ATOM     12  C   LIG    1        1.476  -4.051  -2.532  0.00  0.00    +0.010 C 
BRANCH  12  13
ATOM     13  C   LIG    1        1.455  -2.521  -2.524  0.00  0.00    +0.020 C 
BRANCH  13  14
ATOM     14  C   LIG    1        0.739  -2.027  -1.265  0.00  0.00    +0.000 C 
BRANCH  14  15
ATOM     15  C   LIG    1        0.718  -0.497  -1.257  0.00  0.00    +0.000 C 
BRANCH  15  17
ATOM     16  C   LIG    1       -0.019   1.526   0.010  0.00  0.00    +0.010 C 
ATOM     17  C   LIG    1        0.002  -0.004   0.002  0.00  0.00    -0.010 C 
ENDBRANCH  15  17
ENDBRANCH  14  15
ENDBRANCH  13  14
ENDBRANCH  12  13
ENDBRANCH  11  12
ENDBRANCH   1  11
TORSDOF 8
ENDMDL
MODEL       25
REMARK  Name = ZINC000112144312
REMARK                            x       y       z     vdW  Elec       q    Type
REMARK                         _______ _______ _______ _____ _____    ______ ____
ROOT
ATOM      1  C   LIG    1        2.213  -6.074  -3.800  0.00  0.00    +0.020 C 
ENDROOT
BRANCH   1   2
ATOM      2  C   LIG    1        2.929  -6.567  -5.058  0.00  0.00    -0.020 C 
ATOM      3  C   LIG    1        2.120  -6.169  -6.296  0.00  0.00    +0.040 C 
ATOM      4  C   LIG    1        2.804  -6.734  -7.545  0.00  0.00    +0.050 C 
ATOM      5  C   LIG    1        2.937  -8.252  -7.403  0.00  0.00    +0.250 C 
ATOM      6  N   LIG    1        3.742  -8.568  -6.217  0.00  0.00    -0.500 N 
ATOM      7  H   LIG    1        4.641  -8.116  -6.292  0.00  0.00    +0.430 HD
ATOM      8  H   LIG    1        3.873  -9.566  -6.156  0.00  0.00    +0.430 HD
ATOM      9  C   LIG    1        3.058  -8.091  -5.008  0.00  0.00    +0.250 C 
ENDBRANCH   1   2
BRANCH   1  10
ATOM     10  C   LIG    1        2.192  -4.544  -3.791  0.00  0.00    +0.020 C 
BRANCH  10  11
ATOM     11  C   LIG    1        1.476  -4.051  -2.532  0.00  0.00    +0.000 C 
BRANCH  11  12
ATOM     12  C   LIG    1        1.455  -2.521  -2.524  0.00  0.00    +0.000 C 
BRANCH  12  13
ATOM     13  C   LIG    1        0.739  -2.027  -1.265  0.00  0.00    +0.000 C 
BRANCH  13  14
ATOM     14  C   LIG    1        0.718  -0.497  -1.257  0.00  0.00    +0.000 C 
BRANCH  14  16
ATOM     15  C   LIG    1       -0.019   1.526   0.010  0.00  0.00    +0.000 C 
ATOM     16  C   LIG    1        0.002  -0.004   0.002  0.00  0.00    -0.010 C 
ENDBRANCH  14  16
ENDBRANCH  13  14
ENDBRANCH  12  13
ENDBRANCH  11  12
ENDBRANCH  10  11
ENDBRANCH   1  10
TORSDOF 7
ENDMDL
MODEL       26
REMARK  Name = ZINC000112144315
REMARK                            x       y       z     vdW  Elec       q    Type
REMARK                         _______ _______ _______ _____ _____    ______ ____
ROOT
ATOM      1  C   LIG    1        2.213  -6.074  -3.800  0.00  0.00    +0.020 C 
ENDROOT
BRANCH   1   2
ATOM      2  C   LIG    1        2.929  -6.567  -5.058  0.00  0.00    -0.020 C 
ATOM      3  C   LIG    1        4.400  -6.145  -5.009  0.00  0.00    +0.040 C 
ATOM      4  C   LIG    1        5.125  -6.710  -6.234  0.00  0.00    +0.050 C 
ATOM      5  C   LIG    1        4.959  -8.231  -6.261  0.00  0.00    +0.250 C 
ATOM      6  N   LIG    1        3.533  -8.570  -6.335  0.00  0.00    -0.500 N 
ATOM      7  H   LIG    1        3.429  -9.571  -6.406  0.00  0.00    +0.430 HD
ATOM      8  H   LIG    1        3.126  -8.132  -7.148  0.00  0.00    +0.430 HD
ATOM      9  C   LIG    1        2.843  -8.093  -5.130  0.00  0.00    +0.250 C 
ENDBRANCH   1   2
BRANCH   1  10
ATOM     10  C   LIG    1        2.192  -4.544  -3.791  0.00  0.00    +0.020 C 
BRANCH  10  11
ATOM     11  C   LIG    1        1.476  -4.051  -2.532  0.00  0.00    +0.000 C 
BRANCH  11  12
ATOM     12  C   LIG    1        1.455  -2.521  -2.524  0.00  0.00    +0.000 C 
BRANCH  12  13
ATOM     13  C   LIG    1        0.739  -2.027  -1.265  0.00  0.00    +0.000 C 
BRANCH  13  14
ATOM     14  C   LIG    1        0.718  -0.497  -1.257  0.00  0.00    +0.000 C 
BRANCH  14  16
ATOM     15  C   LIG    1       -0.019   1.526   0.010  0.00  0.00    +0.000 C 
ATOM     16  C   LIG    1        0.002  -0.004   0.002  0.00  0.00    -0.010 C 
ENDBRANCH  14  16
ENDBRANCH  13  14
ENDBRANCH  12  13
ENDBRANCH  11  12
ENDBRANCH  10  11
ENDBRANCH   1  10
TORSDOF 7
ENDMDL
MODEL       27
REMARK  Name = ZINC000113342948
REMARK                            x       y       z     vdW  Elec       q    Type
REMARK                         _______ _______ _______ _____ _____    ______ ____
ROOT
ATOM      1  P   LIG    1       -3.123  -2.695   0.017  0.00  0.00    +2.280 P 
ATOM      2  C   LIG    1       -4.005  -2.091  -1.460  0.00  0.00    -0.300 C 
ATOM      3  C   LIG    1       -3.976  -2.107   1.517  0.00  0.00    -0.300 C 
ENDROOT
BRANCH   1   4
ATOM      4  C   LIG    1       -1.413  -2.063   0.004  0.00  0.00    -0.390 C 
BRANCH   4   5
ATOM      5  C   LIG    1       -1.433  -0.534   0.013  0.00  0.00    +0.020 C 
BRANCH   5   7
ATOM      6  C   LIG    1       -0.019   1.526   0.010  0.00  0.00    +0.030 C 
ATOM      7  C   LIG    1        0.002  -0.004   0.002  0.00  0.00    +0.020 C 
ENDBRANCH   5   7
ENDBRANCH   4   5
ENDBRANCH   1   4
BRANCH   1   8
ATOM      8  C   LIG    1       -3.098  -4.517   0.007  0.00  0.00    -0.390 C 
BRANCH   8   9
ATOM      9  C   LIG    1       -4.534  -5.047   0.018  0.00  0.00    +0.020 C 
BRANCH   9  10
ATOM     10  C   LIG    1       -4.513  -6.577   0.010  0.00  0.00    +0.020 C 
ATOM     11  C   LIG    1       -5.948  -7.106   0.021  0.00  0.00    +0.030 C 
ENDBRANCH   9  10
ENDBRANCH   8   9
ENDBRANCH   1   8
TORSDOF 6
ENDMDL
MODEL       28
REMARK  Name = ZINC000003734462
REMARK                            x       y       z     vdW  Elec       q    Type
REMARK                         _______ _______ _______ _____ _____    ______ ____
ROOT
ATOM      1  C   LIG    1       -4.242  -6.182   0.009  0.00  0.00    +0.050 C 
ENDROOT
BRANCH   1   2
ATOM      2  C   LIG    1       -5.677  -6.712   0.020  0.00  0.00    +0.170 C 
ATOM      3  C   LIG    1       -5.657  -8.237   0.139  0.00  0.00    +0.060 C 
ATOM      4  C   LIG    1       -7.095  -8.763   0.150  0.00  0.00    +0.030 C 
ATOM      5  C   LIG    1       -7.810  -8.289  -1.119  0.00  0.00    +0.050 C 
ATOM      6  C   LIG    1       -7.751  -6.762  -1.191  0.00  0.00    +0.250 C 
ATOM      7  N   LIG    1       -6.351  -6.324  -1.225  0.00  0.00    -0.510 N 
ATOM      8  H   LIG    1       -5.883  -6.757  -2.007  0.00  0.00    +0.430 HD
ATOM      9  H   LIG    1       -6.315  -5.321  -1.327  0.00  0.00    +0.430 HD
ENDBRANCH   1   2
BRANCH   1  10
ATOM     10  C   LIG    1       -4.263  -4.652   0.018  0.00  0.00    +0.010 C 
BRANCH  10  11
ATOM     11  C   LIG    1       -2.827  -4.123   0.007  0.00  0.00    +0.020 C 
BRANCH  11  12
ATOM     12  C   LIG    1       -2.848  -2.593   0.015  0.00  0.00    +0.000 C 
BRANCH  12  13
ATOM     13  C   LIG    1       -1.413  -2.063   0.004  0.00  0.00    +0.000 C 
BRANCH  13  14
ATOM     14  C   LIG    1       -1.433  -0.534   0.013  0.00  0.00    +0.000 C 
BRANCH  14  16
ATOM     15  C   LIG    1       -0.019   1.526   0.010  0.00  0.00    +0.000 C 
ATOM     16  C   LIG    1        0.002  -0.004   0.002  0.00  0.00    -0.010 C 
ENDBRANCH  14  16
ENDBRANCH  13  14
ENDBRANCH  12  13
ENDBRANCH  11  12
ENDBRANCH  10  11
ENDBRANCH   1  10
TORSDOF 7
ENDMDL
MODEL       29
REMARK  Name = ZINC000001555293
REMARK                            x       y       z     vdW  Elec       q    Type
REMARK                         _______ _______ _______ _____ _____    ______ ____
ROOT
ATOM      1  C   LIG    1        2.207  -4.517  -3.840  0.00  0.00    +0.030 C 
ENDROOT
BRANCH   1   2
ATOM      2  C   LIG    1        1.394  -3.985  -2.659  0.00  0.00    +0.020 C 
BRANCH   2   3
ATOM      3  C   LIG    1        1.476  -2.458  -2.629  0.00  0.00    +0.020 C 
BRANCH   3   4
ATOM      4  C   LIG    1        0.663  -1.926  -1.447  0.00  0.00    +0.000 C 
BRANCH   4   5
ATOM      5  C   LIG    1        0.746  -0.398  -1.418  0.00  0.00    +0.000 C 
BRANCH   5   7
ATOM      6  C   LIG    1        0.015   1.661  -0.206  0.00  0.00    +0.000 C 
ATOM      7  C   LIG    1       -0.068   0.134  -0.236  0.00  0.00    -0.010 C 
ENDBRANCH   5   7
ENDBRANCH   4   5
ENDBRANCH   3   4
ENDBRANCH   2   3
ENDBRANCH   1   2
BRANCH   1   8
ATOM      8  C   LIG    1        2.125  -6.045  -3.870  0.00  0.00    +0.250 C 
BRANCH   8   9
ATOM      9  N   LIG    1        2.795  -6.548  -5.077  0.00  0.00    -0.390 N 
ATOM     10  H   LIG    1        2.404  -6.098  -5.891  0.00  0.00    +0.420 HD
BRANCH   9  11
ATOM     11  C   LIG    1        2.596  -8.000  -5.177  0.00  0.00    +0.240 C 
ATOM     12  C   LIG    1        1.113  -8.298  -5.403  0.00  0.00    +0.080 C 
ENDBRANCH   9  11
BRANCH   9  13
ATOM     13  C   LIG    1        4.232  -6.254  -4.997  0.00  0.00    +0.240 C 
ATOM     14  C   LIG    1        4.909  -6.666  -6.306  0.00  0.00    +0.080 C 
ENDBRANCH   9  13
ENDBRANCH   8   9
ENDBRANCH   1   8
TORSDOF 9
ENDMDL
MODEL       30
REMARK  Name = ZINC000001646657
REMARK                            x       y       z     vdW  Elec       q    Type
REMARK                         _______ _______ _______ _____ _____    ______ ____
ROOT
ATOM      1  C   LIG    1        2.213  -6.074  -3.800  0.00  0.00    +0.020 C 
ENDROOT
BRANCH   1   2
ATOM      2  C   LIG    1        2.192  -4.544  -3.791  0.00  0.00    +0.000 C 
BRANCH   2   3
ATOM      3  C   LIG    1        1.476  -4.051  -2.532  0.00  0.00    +0.000 C 
BRANCH   3   4
ATOM      4  C   LIG    1        1.455  -2.521  -2.524  0.00  0.00    +0.000 C 
BRANCH   4   5
ATOM      5  C   LIG    1        0.739  -2.027  -1.265  0.00  0.00    +0.000 C 
BRANCH   5   6
ATOM      6  C   LIG    1        0.718  -0.497  -1.257  0.00  0.00    +0.000 C 
BRANCH   6   8
ATOM      7  C   LIG    1       -0.019   1.526   0.010  0.00  0.00    +0.000 C 
ATOM      8  C   LIG    1        0.002  -0.004   0.002  0.00  0.00    -0.010 C 
ENDBRANCH   6   8
ENDBRANCH   5   6
ENDBRANCH   4   5
ENDBRANCH   3   4
ENDBRANCH   2   3
ENDBRANCH   1   2
BRANCH   1   9
ATOM      9  C   LIG    1        2.929  -6.567  -5.058  0.00  0.00    +0.020 C 
BRANCH   9  10
ATOM     10  C   LIG    1        2.950  -8.097  -5.067  0.00  0.00    +0.030 C 
BRANCH  10  11
ATOM     11  C   LIG    1        3.666  -8.591  -6.326  0.00  0.00    +0.250 C 
BRANCH  11  12
ATOM     12  N   LIG    1        3.686 -10.059  -6.334  0.00  0.00    -0.510 N 
ATOM     13  C   LIG    1        4.373 -10.533  -7.542  0.00  0.00    +0.320 C 
ATOM     14  H   LIG    1        2.739 -10.409  -6.327  0.00  0.00    +0.430 HD
ATOM     15  H   LIG    1        4.174 -10.394  -5.516  0.00  0.00    +0.430 HD
ENDBRANCH  11  12
ENDBRANCH  10  11
ENDBRANCH   9  10
ENDBRANCH   1   9
TORSDOF 10
ENDMDL
MODEL       31
REMARK  Name = ZINC000002509148
REMARK                            x       y       z     vdW  Elec       q    Type
REMARK                         _______ _______ _______ _____ _____    ______ ____
ROOT
ATOM      1  N   LIG    1        2.284  -6.053   3.696  0.00  0.00    -0.510 N 
ATOM      2  H   LIG    1        2.756  -6.378   2.865  0.00  0.00    +0.430 HD
ATOM      3  H   LIG    1        1.337  -6.402   3.703  0.00  0.00    +0.430 HD
ENDROOT
BRANCH   1   4
ATOM      4  C   LIG    1        2.994  -6.540   4.886  0.00  0.00    +0.170 C 
ATOM      5  C   LIG    1        2.210  -6.152   6.141  0.00  0.00    +0.040 C 
ATOM      6  C   LIG    1        2.950  -6.659   7.381  0.00  0.00    +0.030 C 
ATOM      7  C   LIG    1        3.080  -8.182   7.310  0.00  0.00    +0.020 C 
ATOM      8  C   LIG    1        3.864  -8.569   6.055  0.00  0.00    +0.040 C 
ATOM      9  C   LIG    1        3.124  -8.063   4.815  0.00  0.00    +0.040 C 
ENDBRANCH   1   4
BRANCH   1  10
ATOM     10  C   LIG    1        2.264  -4.584   3.704  0.00  0.00    +0.250 C 
BRANCH  10  11
ATOM     11  C   LIG    1        1.524  -4.077   2.464  0.00  0.00    +0.030 C 
BRANCH  11  12
ATOM     12  C   LIG    1        1.503  -2.548   2.473  0.00  0.00    +0.020 C 
BRANCH  12  13
ATOM     13  C   LIG    1        0.763  -2.041   1.233  0.00  0.00    +0.020 C 
BRANCH  13  14
ATOM     14  C   LIG    1        0.742  -0.511   1.242  0.00  0.00    +0.000 C 
BRANCH  14  16
ATOM     15  C   LIG    1       -0.019   1.526   0.010  0.00  0.00    +0.000 C 
ATOM     16  C   LIG    1        0.002  -0.004   0.002  0.00  0.00    -0.010 C 
ENDBRANCH  14  16
ENDBRANCH  13  14
ENDBRANCH  12  13
ENDBRANCH  11  12
ENDBRANCH  10  11
ENDBRANCH   1  10
TORSDOF 7
ENDMDL
MODEL       32
REMARK  Name = ZINC000003734461
REMARK                            x       y       z     vdW  Elec       q    Type
REMARK                         _______ _______ _______ _____ _____    ______ ____
ROOT
ATOM      1  C   LIG    1       -4.242  -6.182   0.009  0.00  0.00    +0.050 C 
ENDROOT
BRANCH   1   2
ATOM      2  C   LIG    1       -5.677  -6.712   0.020  0.00  0.00    +0.170 C 
ATOM      3  C   LIG    1       -5.659  -8.236  -0.115  0.00  0.00    +0.060 C 
ATOM      4  C   LIG    1       -7.097  -8.761  -0.104  0.00  0.00    +0.030 C 
ATOM      5  C   LIG    1       -7.788  -8.301   1.183  0.00  0.00    +0.050 C 
ATOM      6  C   LIG    1       -7.728  -6.775   1.270  0.00  0.00    +0.250 C 
ATOM      7  N   LIG    1       -6.327  -6.338   1.282  0.00  0.00    -0.510 N 
ATOM      8  H   LIG    1       -6.289  -5.335   1.393  0.00  0.00    +0.430 HD
ATOM      9  H   LIG    1       -5.845  -6.778   2.052  0.00  0.00    +0.430 HD
ENDBRANCH   1   2
BRANCH   1  10
ATOM     10  C   LIG    1       -4.263  -4.652   0.018  0.00  0.00    +0.010 C 
BRANCH  10  11
ATOM     11  C   LIG    1       -2.827  -4.123   0.007  0.00  0.00    +0.020 C 
BRANCH  11  12
ATOM     12  C   LIG    1       -2.848  -2.593   0.015  0.00  0.00    +0.000 C 
BRANCH  12  13
ATOM     13  C   LIG    1       -1.413  -2.063   0.004  0.00  0.00    +0.000 C 
BRANCH  13  14
ATOM     14  C   LIG    1       -1.433  -0.534   0.013  0.00  0.00    +0.000 C 
BRANCH  14  16
ATOM     15  C   LIG    1       -0.019   1.526   0.010  0.00  0.00    +0.000 C 
ATOM     16  C   LIG    1        0.002  -0.004   0.002  0.00  0.00    -0.010 C 
ENDBRANCH  14  16
ENDBRANCH  13  14
ENDBRANCH  12  13
ENDBRANCH  11  12
ENDBRANCH  10  11
ENDBRANCH   1  10
TORSDOF 7
ENDMDL
MODEL       33
REMARK  Name = ZINC000001673103
REMARK                            x       y       z     vdW  Elec       q    Type
REMARK                         _______ _______ _______ _____ _____    ______ ____
ROOT
ATOM      1  C   LIG    1       -4.242  -6.182   0.009  0.00  0.00    +0.020 C 
ENDROOT
BRANCH   1   2
ATOM      2  C   LIG    1       -5.677  -6.712   0.020  0.00  0.00    -0.010 C 
ATOM      3  C   LIG    1       -6.378  -6.318  -1.283  0.00  0.00    +0.050 C 
ATOM      4  C   LIG    1       -7.786  -6.918  -1.300  0.00  0.00    +0.250 C 
ATOM      5  N   LIG    1       -7.699  -8.381  -1.212  0.00  0.00    -0.510 N 
ATOM      6  C   LIG    1       -7.093  -8.767   0.068  0.00  0.00    +0.250 C 
ATOM      7  H   LIG    1       -7.132  -8.730  -1.970  0.00  0.00    +0.430 HD
ATOM      8  H   LIG    1       -8.625  -8.776  -1.277  0.00  0.00    +0.430 HD
ATOM      9  C   LIG    1       -5.659  -8.239   0.138  0.00  0.00    +0.050 C 
ENDBRANCH   1   2
BRANCH   1  10
ATOM     10  C   LIG    1       -4.263  -4.652   0.018  0.00  0.00    +0.000 C 
BRANCH  10  11
ATOM     11  C   LIG    1       -2.827  -4.123   0.007  0.00  0.00    +0.000 C 
BRANCH  11  12
ATOM     12  C   LIG    1       -2.848  -2.593   0.015  0.00  0.00    +0.000 C 
BRANCH  12  13
ATOM     13  C   LIG    1       -1.413  -2.063   0.004  0.00  0.00    +0.000 C 
BRANCH  13  14
ATOM     14  C   LIG    1       -1.433  -0.534   0.013  0.00  0.00    +0.000 C 
BRANCH  14  16
ATOM     15  C   LIG    1       -0.019   1.526   0.010  0.00  0.00    +0.000 C 
ATOM     16  C   LIG    1        0.002  -0.004   0.002  0.00  0.00    -0.010 C 
ENDBRANCH  14  16
ENDBRANCH  13  14
ENDBRANCH  12  13
ENDBRANCH  11  12
ENDBRANCH  10  11
ENDBRANCH   1  10
TORSDOF 7
ENDMDL
