MODEL        1
REMARK  Name = ZINC000608491952
REMARK                            x       y       z     vdW  Elec       q    Type
REMARK                         _______ _______ _______ _____ _____    ______ ____
ROOT
ATOM      1  N   LIG    1        1.603  -1.136   1.233  0.00  0.00    -0.380 N 
ATOM      2  H   LIG    1        0.860  -1.689   1.633  0.00  0.00    +0.420 HD
ENDROOT
BRANCH   1   3
ATOM      3  C   LIG    1        1.946  -0.041   2.150  0.00  0.00    +0.240 C 
ATOM      4  C   LIG    1        0.687   0.762   2.480  0.00  0.00    +0.080 C 
ENDBRANCH   1   3
BRANCH   1   5
ATOM      5  C   LIG    1        1.161  -0.578  -0.052  0.00  0.00    +0.300 C 
BRANCH   5   7
ATOM      6  C   LIG    1       -0.623  -1.988  -0.942  0.00  0.00    +0.120 C 
ATOM      7  C   LIG    1        0.652  -1.690  -0.933  0.00  0.00    -0.200 C 
ATOM      8  C   LIG    1        1.611  -2.458  -1.806  0.00  0.00    +0.100 C 
ENDBRANCH   5   7
ENDBRANCH   1   5
BRANCH   1   9
ATOM      9  C   LIG    1        2.783  -1.984   1.019  0.00  0.00    +0.240 C 
BRANCH   9  10
ATOM     10  C   LIG    1        3.215  -2.603   2.350  0.00  0.00    +0.040 C 
BRANCH  10  11
ATOM     11  C   LIG    1        4.444  -3.486   2.127  0.00  0.00    -0.060 C 
ATOM     12  C   LIG    1        5.586  -2.638   1.565  0.00  0.00    +0.020 C 
ATOM     13  C   LIG    1        4.099  -4.599   1.135  0.00  0.00    +0.020 C 
BRANCH  11  14
ATOM     14  C   LIG    1        4.876  -4.106   3.458  0.00  0.00    +0.030 C 
ATOM     15  C   LIG    1        6.105  -4.989   3.235  0.00  0.00    +0.020 C 
ENDBRANCH  11  14
ENDBRANCH  10  11
ENDBRANCH   9  10
ENDBRANCH   1   9
TORSDOF 7
ENDMDL
MODEL        2
REMARK  Name = ZINC000395364745
REMARK                            x       y       z     vdW  Elec       q    Type
REMARK                         _______ _______ _______ _____ _____    ______ ____
ROOT
ATOM      1  N   LIG    1       -2.612  -2.414   1.263  0.00  0.00    -0.510 N 
ATOM      2  H   LIG    1       -2.665  -2.991   0.437  0.00  0.00    +0.430 HD
ATOM      3  H   LIG    1       -3.388  -1.769   1.274  0.00  0.00    +0.420 HD
ENDROOT
BRANCH   1   4
ATOM      4  C   LIG    1       -2.667  -3.266   2.459  0.00  0.00    +0.160 C 
ATOM      5  C   LIG    1       -2.735  -2.405   3.691  0.00  0.00    +0.020 C 
ATOM      6  C   LIG    1       -1.997  -3.031   4.889  0.00  0.00    +0.030 C 
ATOM      7  C   LIG    1       -2.245  -4.546   5.018  0.00  0.00    +0.000 C 
ATOM      8  C   LIG    1       -3.681  -4.918   4.765  0.00  0.00    +0.020 C 
ATOM      9  C   LIG    1       -3.831  -5.310   3.281  0.00  0.00    +0.020 C 
ATOM     10  C   LIG    1       -3.930  -4.149   2.408  0.00  0.00    +0.040 C 
ENDBRANCH   1   4
BRANCH   1  11
ATOM     11  C   LIG    1       -1.350  -1.663   1.255  0.00  0.00    +0.270 C 
BRANCH  11  12
ATOM     12  C   LIG    1       -1.293  -0.775   0.010  0.00  0.00    -0.050 C 
ATOM     13  C   LIG    1       -1.374  -1.649  -1.243  0.00  0.00    +0.060 C 
ATOM     14  C   LIG    1       -2.469   0.203   0.027  0.00  0.00    +0.050 C 
BRANCH  12  16
ATOM     15  C   LIG    1       -0.016   1.306   0.009  0.00  0.00    +0.070 C 
ATOM     16  C   LIG    1        0.002  -0.004   0.002  0.00  0.00    -0.050 C 
ENDBRANCH  12  16
ENDBRANCH  11  12
ENDBRANCH   1  11
TORSDOF 4
ENDMDL
MODEL        3
REMARK  Name = ZINC000395708947
REMARK                            x       y       z     vdW  Elec       q    Type
REMARK                         _______ _______ _______ _____ _____    ______ ____
ROOT
ATOM      1  N   LIG    1        2.898  -1.830   1.424  0.00  0.00    -0.510 N 
ATOM      2  H   LIG    1        2.071  -1.252   1.422  0.00  0.00    +0.430 HD
ATOM      3  H   LIG    1        3.658  -1.331   0.986  0.00  0.00    +0.420 HD
ENDROOT
BRANCH   1   4
ATOM      4  C   LIG    1        2.631  -3.068   0.679  0.00  0.00    +0.250 C 
BRANCH   4   5
ATOM      5  C   LIG    1        2.128  -2.721  -0.723  0.00  0.00    +0.070 C 
BRANCH   5   7
ATOM      6  C   LIG    1        0.643  -4.490  -1.516  0.00  0.00    +0.050 C 
ATOM      7  C   LIG    1        1.854  -3.991  -1.487  0.00  0.00    -0.150 C 
ATOM      8  C   LIG    1        2.974  -4.687  -2.218  0.00  0.00    +0.070 C 
ENDBRANCH   5   7
ENDBRANCH   4   5
ENDBRANCH   1   4
BRANCH   1   9
ATOM      9  C   LIG    1        3.262  -2.160   2.808  0.00  0.00    +0.170 C 
BRANCH   9  10
ATOM     10  C   LIG    1        4.594  -2.914   2.820  0.00  0.00    -0.020 C 
ATOM     11  C   LIG    1        5.757  -1.964   2.441  0.00  0.00    +0.020 C 
ATOM     12  C   LIG    1        6.987  -2.661   3.074  0.00  0.00    +0.030 C 
ATOM     13  C   LIG    1        6.459  -3.221   4.410  0.00  0.00    +0.010 C 
ATOM     14  C   LIG    1        4.937  -3.381   4.249  0.00  0.00    +0.040 C 
ENDBRANCH   9  10
BRANCH   9  15
ATOM     15  C   LIG    1        3.398  -0.871   3.621  0.00  0.00    +0.060 C 
ATOM     16  C   LIG    1        2.032  -0.192   3.733  0.00  0.00    +0.030 C 
ENDBRANCH   9  15
ENDBRANCH   1   9
TORSDOF 6
ENDMDL
MODEL        4
REMARK  Name = ZINC000395708950
REMARK                            x       y       z     vdW  Elec       q    Type
REMARK                         _______ _______ _______ _____ _____    ______ ____
ROOT
ATOM      1  N   LIG    1        3.174  -1.577   1.711  0.00  0.00    -0.510 N 
ATOM      2  H   LIG    1        2.268  -1.152   1.579  0.00  0.00    +0.430 HD
ATOM      3  H   LIG    1        3.894  -0.884   1.572  0.00  0.00    +0.430 HD
ENDROOT
BRANCH   1   4
ATOM      4  C   LIG    1        3.350  -2.667   0.741  0.00  0.00    +0.250 C 
BRANCH   4   5
ATOM      5  C   LIG    1        3.380  -2.088  -0.675  0.00  0.00    +0.070 C 
BRANCH   5   7
ATOM      6  C   LIG    1        2.515  -3.743  -2.249  0.00  0.00    +0.050 C 
ATOM      7  C   LIG    1        3.560  -3.206  -1.670  0.00  0.00    -0.150 C 
ATOM      8  C   LIG    1        4.943  -3.706  -2.000  0.00  0.00    +0.070 C 
ENDBRANCH   5   7
ENDBRANCH   4   5
ENDBRANCH   1   4
BRANCH   1   9
ATOM      9  C   LIG    1        3.269  -2.115   3.074  0.00  0.00    +0.170 C 
BRANCH   9  10
ATOM     10  C   LIG    1        4.671  -2.683   3.302  0.00  0.00    -0.020 C 
ATOM     11  C   LIG    1        5.728  -1.551   3.252  0.00  0.00    +0.010 C 
ATOM     12  C   LIG    1        6.903  -2.145   4.069  0.00  0.00    +0.030 C 
ATOM     13  C   LIG    1        6.216  -2.913   5.217  0.00  0.00    +0.010 C 
ATOM     14  C   LIG    1        4.797  -3.255   4.729  0.00  0.00    +0.050 C 
ENDBRANCH   9  10
BRANCH   9  15
ATOM     15  C   LIG    1        2.233  -3.227   3.257  0.00  0.00    +0.050 C 
ATOM     16  C   LIG    1        0.827  -2.637   3.141  0.00  0.00    +0.020 C 
ENDBRANCH   9  15
ENDBRANCH   1   9
TORSDOF 6
ENDMDL
MODEL        5
REMARK  Name = ZINC000389332226
REMARK                            x       y       z     vdW  Elec       q    Type
REMARK                         _______ _______ _______ _____ _____    ______ ____
ROOT
ATOM      1  C   LIG    1       -4.000  -5.238  -3.533  0.00  0.00    +0.250 C 
ENDROOT
BRANCH   1   2
ATOM      2  N   LIG    1       -5.262  -5.989  -3.525  0.00  0.00    -0.510 N 
ATOM      3  H   LIG    1       -6.037  -5.347  -3.597  0.00  0.00    +0.430 HD
ATOM      4  H   LIG    1       -5.337  -6.511  -2.665  0.00  0.00    +0.430 HD
BRANCH   2   5
ATOM      5  C   LIG    1       -5.287  -6.916  -4.664  0.00  0.00    +0.170 C 
ATOM      6  C   LIG    1       -4.272  -8.066  -4.450  0.00  0.00    +0.040 C 
ATOM      7  C   LIG    1       -4.837  -9.193  -5.349  0.00  0.00    +0.050 C 
ATOM      8  C   LIG    1       -6.367  -9.076  -5.187  0.00  0.00    +0.030 C 
ATOM      9  C   LIG    1       -6.653  -7.628  -4.751  0.00  0.00    +0.050 C 
ENDBRANCH   2   5
ENDBRANCH   1   2
BRANCH   1  10
ATOM     10  C   LIG    1       -3.974  -4.272  -2.346  0.00  0.00    +0.030 C 
BRANCH  10  11
ATOM     11  C   LIG    1       -2.659  -3.489  -2.355  0.00  0.00    +0.020 C 
BRANCH  11  12
ATOM     12  C   LIG    1       -2.633  -2.524  -1.168  0.00  0.00    +0.020 C 
BRANCH  12  13
ATOM     13  C   LIG    1       -1.319  -1.741  -1.176  0.00  0.00    +0.020 C 
BRANCH  13  14
ATOM     14  C   LIG    1       -1.293  -0.775   0.010  0.00  0.00    +0.040 C 
BRANCH  14  16
ATOM     15  C   LIG    1       -0.016   1.306   0.009  0.00  0.00    +0.010 C 
ATOM     16  C   LIG    1        0.002  -0.004   0.002  0.00  0.00    -0.060 C 
ENDBRANCH  14  16
ENDBRANCH  13  14
ENDBRANCH  12  13
ENDBRANCH  11  12
ENDBRANCH  10  11
ENDBRANCH   1  10
TORSDOF 8
ENDMDL
MODEL        6
REMARK  Name = ZINC000608501717
REMARK                            x       y       z     vdW  Elec       q    Type
REMARK                         _______ _______ _______ _____ _____    ______ ____
ROOT
ATOM      1  N   LIG    1       -2.658  -3.451  -2.307  0.00  0.00    -0.390 N 
ATOM      2  C   LIG    1       -1.604  -4.460  -2.141  0.00  0.00    +0.300 C 
ATOM      3  H   LIG    1       -2.501  -2.938  -3.162  0.00  0.00    +0.420 HD
ENDROOT
BRANCH   1   4
ATOM      4  C   LIG    1       -2.633  -2.524  -1.168  0.00  0.00    +0.250 C 
BRANCH   4   5
ATOM      5  C   LIG    1       -1.319  -1.741  -1.176  0.00  0.00    +0.040 C 
BRANCH   5   6
ATOM      6  C   LIG    1       -1.293  -0.775   0.010  0.00  0.00    +0.070 C 
BRANCH   6   8
ATOM      7  C   LIG    1       -0.016   1.306   0.009  0.00  0.00    +0.030 C 
ATOM      8  C   LIG    1        0.002  -0.004   0.002  0.00  0.00    -0.070 C 
ENDBRANCH   6   8
ENDBRANCH   5   6
ENDBRANCH   4   5
ENDBRANCH   1   4
BRANCH   1   9
ATOM      9  C   LIG    1       -3.967  -4.115  -2.369  0.00  0.00    +0.240 C 
BRANCH   9  10
ATOM     10  C   LIG    1       -4.038  -4.986  -3.625  0.00  0.00    +0.040 C 
BRANCH  10  11
ATOM     11  C   LIG    1       -5.401  -5.678  -3.690  0.00  0.00    -0.060 C 
ATOM     12  C   LIG    1       -6.507  -4.623  -3.737  0.00  0.00    +0.020 C 
ATOM     13  C   LIG    1       -5.586  -6.556  -2.450  0.00  0.00    +0.020 C 
BRANCH  11  14
ATOM     14  C   LIG    1       -5.472  -6.549  -4.946  0.00  0.00    +0.030 C 
ATOM     15  C   LIG    1       -6.835  -7.241  -5.010  0.00  0.00    +0.020 C 
ENDBRANCH  11  14
ENDBRANCH  10  11
ENDBRANCH   9  10
ENDBRANCH   1   9
TORSDOF 8
ENDMDL
MODEL        7
REMARK  Name = ZINC000389337826
REMARK                            x       y       z     vdW  Elec       q    Type
REMARK                         _______ _______ _______ _____ _____    ______ ____
ROOT
ATOM      1  C   LIG    1        4.145  -5.166   3.480  0.00  0.00    +0.250 C 
ENDROOT
BRANCH   1   2
ATOM      2  N   LIG    1        5.427  -5.883   3.464  0.00  0.00    -0.500 N 
ATOM      3  H   LIG    1        6.184  -5.220   3.543  0.00  0.00    +0.430 HD
ATOM      4  H   LIG    1        5.516  -6.393   2.598  0.00  0.00    +0.430 HD
BRANCH   2   5
ATOM      5  C   LIG    1        5.477  -6.821   4.593  0.00  0.00    +0.150 C 
ATOM      6  C   LIG    1        4.872  -8.199   4.276  0.00  0.00    +0.050 C 
ATOM      7  C   LIG    1        6.033  -8.807   5.081  0.00  0.00    +0.010 C 
ATOM      8  C   LIG    1        6.610 -10.079   4.457  0.00  0.00    +0.050 C 
ATOM      9  C   LIG    1        6.830  -7.537   4.739  0.00  0.00    +0.060 C 
ENDBRANCH   2   5
ENDBRANCH   1   2
BRANCH   1  10
ATOM     10  C   LIG    1        4.093  -4.188   2.304  0.00  0.00    +0.030 C 
BRANCH  10  11
ATOM     11  C   LIG    1        2.757  -3.441   2.321  0.00  0.00    +0.020 C 
BRANCH  11  12
ATOM     12  C   LIG    1        2.705  -2.464   1.145  0.00  0.00    +0.020 C 
BRANCH  12  13
ATOM     13  C   LIG    1        1.370  -1.717   1.161  0.00  0.00    +0.020 C 
BRANCH  13  14
ATOM     14  C   LIG    1        1.317  -0.740  -0.015  0.00  0.00    +0.040 C 
BRANCH  14  16
ATOM     15  C   LIG    1       -0.016   1.306   0.009  0.00  0.00    +0.010 C 
ATOM     16  C   LIG    1        0.002  -0.004   0.002  0.00  0.00    -0.060 C 
ENDBRANCH  14  16
ENDBRANCH  13  14
ENDBRANCH  12  13
ENDBRANCH  11  12
ENDBRANCH  10  11
ENDBRANCH   1  10
TORSDOF 8
ENDMDL
MODEL        8
REMARK  Name = ZINC000308222018
REMARK                            x       y       z     vdW  Elec       q    Type
REMARK                         _______ _______ _______ _____ _____    ______ ____
ROOT
ATOM      1  C   LIG    1        4.145  -5.166   3.480  0.00  0.00    +0.160 C 
ATOM      2  C   LIG    1        5.526  -5.822   3.537  0.00  0.00    +0.090 C 
ENDROOT
BRANCH   1   3
ATOM      3  N   LIG    1        3.118  -6.201   3.302  0.00  0.00    -0.510 N 
ATOM      4  H   LIG    1        3.335  -6.753   2.486  0.00  0.00    +0.430 HD
ATOM      5  H   LIG    1        2.217  -5.764   3.182  0.00  0.00    +0.420 HD
BRANCH   3   6
ATOM      6  C   LIG    1        3.088  -7.069   4.487  0.00  0.00    +0.160 C 
ATOM      7  C   LIG    1        2.108  -8.220   4.251  0.00  0.00    +0.090 C 
ATOM      8  C   LIG    1        2.637  -6.257   5.703  0.00  0.00    +0.090 C 
ENDBRANCH   3   6
ENDBRANCH   1   3
BRANCH   1   9
ATOM      9  C   LIG    1        4.093  -4.188   2.304  0.00  0.00    +0.050 C 
BRANCH   9  10
ATOM     10  C   LIG    1        2.757  -3.441   2.321  0.00  0.00    +0.010 C 
BRANCH  10  11
ATOM     11  C   LIG    1        2.705  -2.464   1.145  0.00  0.00    +0.020 C 
BRANCH  11  12
ATOM     12  C   LIG    1        1.370  -1.717   1.161  0.00  0.00    +0.010 C 
BRANCH  12  13
ATOM     13  C   LIG    1        1.317  -0.740  -0.015  0.00  0.00    +0.040 C 
BRANCH  13  15
ATOM     14  C   LIG    1       -0.016   1.306   0.009  0.00  0.00    +0.020 C 
ATOM     15  C   LIG    1        0.002  -0.004   0.002  0.00  0.00    -0.060 C 
ENDBRANCH  13  15
ENDBRANCH  12  13
ENDBRANCH  11  12
ENDBRANCH  10  11
ENDBRANCH   9  10
ENDBRANCH   1   9
TORSDOF 8
ENDMDL
MODEL        9
REMARK  Name = ZINC000149857044
REMARK                            x       y       z     vdW  Elec       q    Type
REMARK                         _______ _______ _______ _____ _____    ______ ____
ROOT
ATOM      1  N   LIG    1        2.755  -3.402   2.274  0.00  0.00    -0.510 N 
ATOM      2  H   LIG    1        1.998  -4.065   2.195  0.00  0.00    +0.430 HD
ATOM      3  H   LIG    1        2.666  -2.892   3.140  0.00  0.00    +0.430 HD
ENDROOT
BRANCH   1   4
ATOM      4  C   LIG    1        4.037  -4.120   2.258  0.00  0.00    +0.160 C 
ATOM      5  C   LIG    1        4.118  -4.991   1.003  0.00  0.00    +0.040 C 
ATOM      6  C   LIG    1        5.453  -5.738   0.986  0.00  0.00    +0.040 C 
ATOM      7  C   LIG    1        5.558  -6.623   2.230  0.00  0.00    +0.030 C 
ATOM      8  C   LIG    1        5.477  -5.752   3.485  0.00  0.00    -0.050 C 
ATOM      9  C   LIG    1        6.627  -4.742   3.479  0.00  0.00    +0.030 C 
ATOM     10  C   LIG    1        5.582  -6.637   4.728  0.00  0.00    +0.040 C 
ATOM     11  C   LIG    1        4.142  -5.005   3.501  0.00  0.00    +0.050 C 
ENDBRANCH   1   4
BRANCH   1  12
ATOM     12  C   LIG    1        2.705  -2.464   1.145  0.00  0.00    +0.250 C 
BRANCH  12  13
ATOM     13  C   LIG    1        1.370  -1.717   1.161  0.00  0.00    +0.040 C 
BRANCH  13  14
ATOM     14  C   LIG    1        1.317  -0.740  -0.015  0.00  0.00    +0.070 C 
BRANCH  14  16
ATOM     15  C   LIG    1       -0.016   1.306   0.009  0.00  0.00    +0.030 C 
ATOM     16  C   LIG    1        0.002  -0.004   0.002  0.00  0.00    -0.070 C 
ENDBRANCH  14  16
ENDBRANCH  13  14
ENDBRANCH  12  13
ENDBRANCH   1  12
TORSDOF 5
ENDMDL
MODEL       10
REMARK  Name = ZINC000114220356
REMARK                            x       y       z     vdW  Elec       q    Type
REMARK                         _______ _______ _______ _____ _____    ______ ____
ROOT
ATOM      1  C   LIG    1        2.264  -4.584   3.704  0.00  0.00    +0.020 C 
ENDROOT
BRANCH   1   2
ATOM      2  C   LIG    1        1.524  -4.077   2.464  0.00  0.00    +0.020 C 
BRANCH   2   3
ATOM      3  C   LIG    1        1.503  -2.548   2.473  0.00  0.00    +0.000 C 
BRANCH   3   4
ATOM      4  C   LIG    1        0.763  -2.041   1.233  0.00  0.00    +0.000 C 
BRANCH   4   5
ATOM      5  C   LIG    1        0.742  -0.511   1.242  0.00  0.00    +0.000 C 
BRANCH   5   7
ATOM      6  C   LIG    1       -0.019   1.526   0.010  0.00  0.00    +0.000 C 
ATOM      7  C   LIG    1        0.002  -0.004   0.002  0.00  0.00    -0.010 C 
ENDBRANCH   5   7
ENDBRANCH   4   5
ENDBRANCH   3   4
ENDBRANCH   2   3
ENDBRANCH   1   2
BRANCH   1   8
ATOM      8  C   LIG    1        2.284  -6.114   3.695  0.00  0.00    +0.030 C 
BRANCH   8   9
ATOM      9  C   LIG    1        3.024  -6.621   4.935  0.00  0.00    +0.250 C 
BRANCH   9  10
ATOM     10  N   LIG    1        3.044  -8.090   4.927  0.00  0.00    -0.390 N 
ATOM     11  C   LIG    1        1.673  -8.599   5.058  0.00  0.00    +0.300 C 
ATOM     12  H   LIG    1        3.442  -8.416   4.059  0.00  0.00    +0.420 HD
BRANCH  10  13
ATOM     13  C   LIG    1        3.856  -8.575   6.051  0.00  0.00    +0.250 C 
ATOM     14  C   LIG    1        3.980 -10.098   5.971  0.00  0.00    +0.080 C 
ENDBRANCH  10  13
ENDBRANCH   9  10
ENDBRANCH   8   9
ENDBRANCH   1   8
TORSDOF 9
ENDMDL
MODEL       11
REMARK  Name = ZINC000149856874
REMARK                            x       y       z     vdW  Elec       q    Type
REMARK                         _______ _______ _______ _____ _____    ______ ____
ROOT
ATOM      1  N   LIG    1        2.755  -3.402   2.274  0.00  0.00    -0.510 N 
ATOM      2  H   LIG    1        1.998  -4.065   2.195  0.00  0.00    +0.430 HD
ATOM      3  H   LIG    1        2.666  -2.892   3.140  0.00  0.00    +0.430 HD
ENDROOT
BRANCH   1   4
ATOM      4  C   LIG    1        4.037  -4.120   2.258  0.00  0.00    +0.160 C 
ATOM      5  C   LIG    1        5.178  -3.130   2.503  0.00  0.00    +0.040 C 
ATOM      6  C   LIG    1        6.513  -3.877   2.486  0.00  0.00    +0.040 C 
ATOM      7  C   LIG    1        6.516  -4.941   3.585  0.00  0.00    +0.030 C 
ATOM      8  C   LIG    1        5.375  -5.931   3.340  0.00  0.00    -0.050 C 
ATOM      9  C   LIG    1        5.378  -6.995   4.440  0.00  0.00    +0.040 C 
ATOM     10  C   LIG    1        5.567  -6.603   1.979  0.00  0.00    +0.030 C 
ATOM     11  C   LIG    1        4.040  -5.184   3.357  0.00  0.00    +0.050 C 
ENDBRANCH   1   4
BRANCH   1  12
ATOM     12  C   LIG    1        2.705  -2.464   1.145  0.00  0.00    +0.250 C 
BRANCH  12  13
ATOM     13  C   LIG    1        1.370  -1.717   1.161  0.00  0.00    +0.040 C 
BRANCH  13  14
ATOM     14  C   LIG    1        1.317  -0.740  -0.015  0.00  0.00    +0.070 C 
BRANCH  14  16
ATOM     15  C   LIG    1       -0.016   1.306   0.009  0.00  0.00    +0.030 C 
ATOM     16  C   LIG    1        0.002  -0.004   0.002  0.00  0.00    -0.070 C 
ENDBRANCH  14  16
ENDBRANCH  13  14
ENDBRANCH  12  13
ENDBRANCH   1  12
TORSDOF 5
ENDMDL
MODEL       12
REMARK  Name = ZINC000308495765
REMARK                            x       y       z     vdW  Elec       q    Type
REMARK                         _______ _______ _______ _____ _____    ______ ____
ROOT
ATOM      1  C   LIG    1        4.145  -5.166   3.480  0.00  0.00    +0.170 C 
ATOM      2  C   LIG    1        5.424  -6.000   3.393  0.00  0.00    +0.080 C 
ENDROOT
BRANCH   1   3
ATOM      3  N   LIG    1        4.136  -4.414   4.742  0.00  0.00    -0.500 N 
ATOM      4  H   LIG    1        3.334  -3.802   4.763  0.00  0.00    +0.430 HD
ATOM      5  H   LIG    1        4.980  -3.866   4.813  0.00  0.00    +0.420 HD
BRANCH   3   6
ATOM      6  C   LIG    1        4.065  -5.352   5.870  0.00  0.00    +0.150 C 
ATOM      7  C   LIG    1        5.441  -5.848   6.346  0.00  0.00    +0.050 C 
ATOM      8  C   LIG    1        4.903  -5.720   7.781  0.00  0.00    +0.060 C 
ATOM      9  C   LIG    1        3.928  -4.662   7.237  0.00  0.00    +0.050 C 
ENDBRANCH   3   6
ENDBRANCH   1   3
BRANCH   1  10
ATOM     10  C   LIG    1        4.093  -4.188   2.304  0.00  0.00    +0.050 C 
BRANCH  10  11
ATOM     11  C   LIG    1        2.757  -3.441   2.321  0.00  0.00    +0.010 C 
BRANCH  11  12
ATOM     12  C   LIG    1        2.705  -2.464   1.145  0.00  0.00    +0.020 C 
BRANCH  12  13
ATOM     13  C   LIG    1        1.370  -1.717   1.161  0.00  0.00    +0.010 C 
BRANCH  13  14
ATOM     14  C   LIG    1        1.317  -0.740  -0.015  0.00  0.00    +0.040 C 
BRANCH  14  16
ATOM     15  C   LIG    1       -0.016   1.306   0.009  0.00  0.00    +0.010 C 
ATOM     16  C   LIG    1        0.002  -0.004   0.002  0.00  0.00    -0.060 C 
ENDBRANCH  14  16
ENDBRANCH  13  14
ENDBRANCH  12  13
ENDBRANCH  11  12
ENDBRANCH  10  11
ENDBRANCH   1  10
TORSDOF 8
ENDMDL
MODEL       13
REMARK  Name = ZINC000308222819
REMARK                            x       y       z     vdW  Elec       q    Type
REMARK                         _______ _______ _______ _____ _____    ______ ____
ROOT
ATOM      1  C   LIG    1        2.264  -4.584   3.704  0.00  0.00    +0.250 C 
ENDROOT
BRANCH   1   2
ATOM      2  N   LIG    1        2.284  -6.053   3.696  0.00  0.00    -0.390 N 
ATOM      3  C   LIG    1        0.912  -6.562   3.827  0.00  0.00    +0.310 C 
ATOM      4  H   LIG    1        2.682  -6.379   2.828  0.00  0.00    +0.420 HD
BRANCH   2   5
ATOM      5  C   LIG    1        3.095  -6.538   4.820  0.00  0.00    +0.250 C 
BRANCH   5   6
ATOM      6  C   LIG    1        3.219  -8.061   4.740  0.00  0.00    -0.030 C 
ATOM      7  C   LIG    1        3.958  -8.578   5.976  0.00  0.00    +0.070 C 
ATOM      8  C   LIG    1        4.001  -8.444   3.482  0.00  0.00    +0.030 C 
ENDBRANCH   5   6
ENDBRANCH   2   5
ENDBRANCH   1   2
BRANCH   1   9
ATOM      9  C   LIG    1        1.524  -4.077   2.464  0.00  0.00    +0.030 C 
BRANCH   9  10
ATOM     10  C   LIG    1        1.503  -2.548   2.473  0.00  0.00    +0.020 C 
BRANCH  10  11
ATOM     11  C   LIG    1        0.763  -2.041   1.233  0.00  0.00    +0.020 C 
BRANCH  11  12
ATOM     12  C   LIG    1        0.742  -0.511   1.242  0.00  0.00    +0.000 C 
BRANCH  12  14
ATOM     13  C   LIG    1       -0.019   1.526   0.010  0.00  0.00    +0.000 C 
ATOM     14  C   LIG    1        0.002  -0.004   0.002  0.00  0.00    -0.010 C 
ENDBRANCH  12  14
ENDBRANCH  11  12
ENDBRANCH  10  11
ENDBRANCH   9  10
ENDBRANCH   1   9
TORSDOF 8
ENDMDL
MODEL       14
REMARK  Name = ZINC000308560907
REMARK                            x       y       z     vdW  Elec       q    Type
REMARK                         _______ _______ _______ _____ _____    ______ ____
ROOT
ATOM      1  C   LIG    1        4.145  -5.166   3.480  0.00  0.00    +0.250 C 
ENDROOT
BRANCH   1   2
ATOM      2  N   LIG    1        5.427  -5.883   3.464  0.00  0.00    -0.510 N 
ATOM      3  H   LIG    1        6.184  -5.220   3.543  0.00  0.00    +0.430 HD
ATOM      4  H   LIG    1        5.516  -6.393   2.598  0.00  0.00    +0.430 HD
BRANCH   2   5
ATOM      5  C   LIG    1        5.477  -6.821   4.593  0.00  0.00    +0.200 C 
ATOM      6  C   LIG    1        5.468  -6.038   5.907  0.00  0.00    +0.090 C 
BRANCH   5   7
ATOM      7  C   LIG    1        6.756  -7.656   4.505  0.00  0.00    -0.080 C 
ATOM      8  C   LIG    1        7.779  -7.502   5.634  0.00  0.00    +0.050 C 
ATOM      9  C   LIG    1        6.939  -8.777   5.530  0.00  0.00    +0.070 C 
ENDBRANCH   5   7
ENDBRANCH   2   5
ENDBRANCH   1   2
BRANCH   1  10
ATOM     10  C   LIG    1        4.093  -4.188   2.304  0.00  0.00    +0.030 C 
BRANCH  10  11
ATOM     11  C   LIG    1        2.757  -3.441   2.321  0.00  0.00    +0.020 C 
BRANCH  11  12
ATOM     12  C   LIG    1        2.705  -2.464   1.145  0.00  0.00    +0.020 C 
BRANCH  12  13
ATOM     13  C   LIG    1        1.370  -1.717   1.161  0.00  0.00    +0.020 C 
BRANCH  13  14
ATOM     14  C   LIG    1        1.317  -0.740  -0.015  0.00  0.00    +0.040 C 
BRANCH  14  16
ATOM     15  C   LIG    1       -0.016   1.306   0.009  0.00  0.00    +0.010 C 
ATOM     16  C   LIG    1        0.002  -0.004   0.002  0.00  0.00    -0.060 C 
ENDBRANCH  14  16
ENDBRANCH  13  14
ENDBRANCH  12  13
ENDBRANCH  11  12
ENDBRANCH  10  11
ENDBRANCH   1  10
TORSDOF 9
ENDMDL
MODEL       15
REMARK  Name = ZINC000169122720
REMARK                            x       y       z     vdW  Elec       q    Type
REMARK                         _______ _______ _______ _____ _____    ______ ____
ROOT
ATOM      1  N   LIG    1       -0.264  -2.750  -1.010  0.00  0.00    -0.510 N 
ATOM      2  H   LIG    1       -0.471  -3.254  -0.161  0.00  0.00    +0.430 HD
ATOM      3  H   LIG    1        0.651  -2.330  -0.937  0.00  0.00    +0.420 HD
ENDROOT
BRANCH   1   4
ATOM      4  C   LIG    1       -0.289  -3.677  -2.149  0.00  0.00    +0.160 C 
ATOM      5  C   LIG    1        0.194  -2.970  -3.387  0.00  0.00    +0.020 C 
ATOM      6  C   LIG    1       -0.517  -3.463  -4.662  0.00  0.00    +0.040 C 
ATOM      7  C   LIG    1       -0.697  -4.993  -4.692  0.00  0.00    +0.010 C 
ATOM      8  C   LIG    1        0.523  -5.726  -4.204  0.00  0.00    -0.010 C 
ATOM      9  C   LIG    1        0.347  -6.023  -2.700  0.00  0.00    +0.030 C 
ATOM     10  C   LIG    1        0.679  -7.037  -4.976  0.00  0.00    +0.030 C 
ATOM     11  C   LIG    1        0.646  -4.871  -1.865  0.00  0.00    +0.040 C 
ENDBRANCH   1   4
BRANCH   1  12
ATOM     12  C   LIG    1       -1.270  -1.699  -1.213  0.00  0.00    +0.170 C 
ATOM     13  C   LIG    1       -2.669  -2.317  -1.173  0.00  0.00    +0.090 C 
BRANCH  12  14
ATOM     14  C   LIG    1       -1.144  -0.651  -0.104  0.00  0.00    +0.090 C 
BRANCH  14  16
ATOM     15  C   LIG    1        0.239   1.350  -0.311  0.00  0.00    +0.090 C 
ATOM     16  C   LIG    1        0.188   0.044  -0.220  0.00  0.00    -0.110 C 
ENDBRANCH  14  16
ENDBRANCH  12  14
ENDBRANCH   1  12
TORSDOF 4
ENDMDL
MODEL       16
REMARK  Name = ZINC000169122887
REMARK                            x       y       z     vdW  Elec       q    Type
REMARK                         _______ _______ _______ _____ _____    ______ ____
ROOT
ATOM      1  N   LIG    1       -0.203  -2.769  -0.907  0.00  0.00    -0.510 N 
ATOM      2  H   LIG    1       -1.030  -2.195  -0.973  0.00  0.00    +0.430 HD
ATOM      3  H   LIG    1       -0.246  -3.327  -0.067  0.00  0.00    +0.420 HD
ENDROOT
BRANCH   1   4
ATOM      4  C   LIG    1       -0.126  -3.653  -2.078  0.00  0.00    +0.160 C 
ATOM      5  C   LIG    1       -1.440  -4.450  -2.212  0.00  0.00    +0.040 C 
ATOM      6  C   LIG    1       -1.631  -4.983  -3.553  0.00  0.00    +0.020 C 
ATOM      7  C   LIG    1       -0.522  -5.977  -3.954  0.00  0.00    +0.030 C 
ATOM      8  C   LIG    1        0.688  -5.194  -4.386  0.00  0.00    -0.030 C 
ATOM      9  C   LIG    1        1.693  -4.979  -3.238  0.00  0.00    +0.040 C 
ATOM     10  C   LIG    1        1.388  -5.950  -5.518  0.00  0.00    +0.020 C 
ATOM     11  C   LIG    1        1.011  -4.623  -1.906  0.00  0.00    +0.020 C 
ENDBRANCH   1   4
BRANCH   1  12
ATOM     12  C   LIG    1        0.988  -1.910  -0.863  0.00  0.00    +0.170 C 
ATOM     13  C   LIG    1        0.978  -0.963  -2.065  0.00  0.00    +0.090 C 
BRANCH  12  14
ATOM     14  C   LIG    1        0.981  -1.093   0.430  0.00  0.00    +0.090 C 
BRANCH  14  16
ATOM     15  C   LIG    1        2.073  -1.836   2.484  0.00  0.00    +0.090 C 
ATOM     16  C   LIG    1        1.114  -2.021   1.611  0.00  0.00    -0.110 C 
ENDBRANCH  14  16
ENDBRANCH  12  14
ENDBRANCH   1  12
TORSDOF 4
ENDMDL
MODEL       17
REMARK  Name = ZINC000802638380
REMARK                            x       y       z     vdW  Elec       q    Type
REMARK                         _______ _______ _______ _____ _____    ______ ____
ROOT
ATOM      1  N   LIG    1        1.358  -1.874   0.656  0.00  0.00    -0.380 N 
ATOM      2  H   LIG    1        0.756  -2.629   0.362  0.00  0.00    +0.420 HD
ENDROOT
BRANCH   1   3
ATOM      3  C   LIG    1        1.610  -0.979  -0.481  0.00  0.00    +0.160 C 
ATOM      4  C   LIG    1        2.162  -1.788  -1.656  0.00  0.00    +0.090 C 
ATOM      5  C   LIG    1        2.629   0.088  -0.074  0.00  0.00    +0.080 C 
ENDBRANCH   1   3
BRANCH   1   6
ATOM      6  C   LIG    1        0.708  -1.122   1.737  0.00  0.00    +0.290 C 
BRANCH   6   8
ATOM      7  C   LIG    1       -1.715  -0.985   2.005  0.00  0.00    +0.130 C 
ATOM      8  C   LIG    1       -0.662  -0.681   1.288  0.00  0.00    -0.110 C 
ENDBRANCH   6   8
ENDBRANCH   1   6
BRANCH   1   9
ATOM      9  C   LIG    1        2.632  -2.423   1.139  0.00  0.00    +0.250 C 
BRANCH   9  10
ATOM     10  C   LIG    1        2.359  -3.469   2.221  0.00  0.00    -0.010 C 
ATOM     11  C   LIG    1        1.550  -4.622   1.624  0.00  0.00    +0.050 C 
BRANCH  10  12
ATOM     12  C   LIG    1        3.688  -4.004   2.760  0.00  0.00    -0.060 C 
ATOM     13  C   LIG    1        4.479  -4.646   1.619  0.00  0.00    +0.030 C 
ATOM     14  C   LIG    1        3.415  -5.050   3.843  0.00  0.00    +0.040 C 
ATOM     15  C   LIG    1        4.497  -2.852   3.357  0.00  0.00    +0.030 C 
ENDBRANCH  10  12
ENDBRANCH   9  10
ENDBRANCH   1   9
TORSDOF 6
ENDMDL
MODEL       18
REMARK  Name = ZINC000157255202
REMARK                            x       y       z     vdW  Elec       q    Type
REMARK                         _______ _______ _______ _____ _____    ______ ____
ROOT
ATOM      1  C   LIG    1        2.168  -2.420  -0.800  0.00  0.00    +0.160 C 
ENDROOT
BRANCH   1   2
ATOM      2  N   LIG    1        1.290  -1.242  -0.798  0.00  0.00    -0.510 N 
ATOM      3  H   LIG    1        1.262  -0.842  -1.724  0.00  0.00    +0.420 HD
ATOM      4  H   LIG    1        0.360  -1.516  -0.521  0.00  0.00    +0.420 HD
BRANCH   2   5
ATOM      5  C   LIG    1        1.810  -0.247   0.149  0.00  0.00    +0.210 C 
ATOM      6  C   LIG    1        1.702  -0.794   1.574  0.00  0.00    +0.090 C 
BRANCH   5   8
ATOM      7  C   LIG    1        1.572   2.122  -0.391  0.00  0.00    +0.130 C 
ATOM      8  C   LIG    1        1.004   1.022   0.037  0.00  0.00    -0.090 C 
ENDBRANCH   5   8
ENDBRANCH   2   5
ENDBRANCH   1   2
BRANCH   1   9
ATOM      9  C   LIG    1        2.064  -3.131  -2.151  0.00  0.00    +0.060 C 
BRANCH   9  10
ATOM     10  C   LIG    1        2.609  -2.218  -3.251  0.00  0.00    -0.040 C 
ATOM     11  C   LIG    1        2.392  -2.876  -4.615  0.00  0.00    +0.050 C 
ATOM     12  C   LIG    1        4.106  -1.989  -3.028  0.00  0.00    +0.030 C 
ENDBRANCH   9  10
ENDBRANCH   1   9
BRANCH   1  13
ATOM     13  C   LIG    1        1.739  -3.377   0.314  0.00  0.00    +0.030 C 
BRANCH  13  14
ATOM     14  C   LIG    1        2.733  -4.537   0.400  0.00  0.00    -0.010 C 
ATOM     15  C   LIG    1        2.240  -5.556   1.429  0.00  0.00    +0.040 C 
ATOM     16  C   LIG    1        4.103  -4.005   0.826  0.00  0.00    +0.020 C 
ENDBRANCH  13  14
ENDBRANCH   1  13
TORSDOF 7
ENDMDL
MODEL       19
REMARK  Name = ZINC000168968996
REMARK                            x       y       z     vdW  Elec       q    Type
REMARK                         _______ _______ _______ _____ _____    ______ ____
ROOT
ATOM      1  N   LIG    1        2.997  -1.823   1.401  0.00  0.00    -0.510 N 
ATOM      2  H   LIG    1        3.707  -1.233   0.995  0.00  0.00    +0.430 HD
ATOM      3  H   LIG    1        2.905  -2.665   0.851  0.00  0.00    +0.430 HD
ENDROOT
BRANCH   1   4
ATOM      4  C   LIG    1        3.378  -2.175   2.775  0.00  0.00    +0.170 C 
ATOM      5  C   LIG    1        3.639  -0.897   3.575  0.00  0.00    +0.090 C 
BRANCH   4   6
ATOM      6  C   LIG    1        4.648  -3.029   2.749  0.00  0.00    +0.050 C 
BRANCH   6   7
ATOM      7  C   LIG    1        4.352  -4.361   2.058  0.00  0.00    -0.000 C 
BRANCH   7   8
ATOM      8  C   LIG    1        5.622  -5.215   2.032  0.00  0.00    +0.020 C 
BRANCH   8   9
ATOM      9  C   LIG    1        5.326  -6.547   1.340  0.00  0.00    -0.030 C 
ATOM     10  C   LIG    1        4.320  -7.343   2.174  0.00  0.00    +0.020 C 
ATOM     11  C   LIG    1        6.622  -7.349   1.203  0.00  0.00    +0.030 C 
ENDBRANCH   8   9
ENDBRANCH   7   8
ENDBRANCH   6   7
ENDBRANCH   4   6
ENDBRANCH   1   4
BRANCH   1  12
ATOM     12  C   LIG    1        1.715  -1.106   1.417  0.00  0.00    +0.250 C 
BRANCH  12  13
ATOM     13  C   LIG    1        1.317  -0.740  -0.015  0.00  0.00    +0.070 C 
BRANCH  13  15
ATOM     14  C   LIG    1       -0.016   1.306   0.009  0.00  0.00    +0.050 C 
ATOM     15  C   LIG    1        0.002  -0.004   0.002  0.00  0.00    -0.150 C 
ATOM     16  C   LIG    1       -1.293  -0.775   0.010  0.00  0.00    +0.080 C 
ENDBRANCH  13  15
ENDBRANCH  12  13
ENDBRANCH   1  12
TORSDOF 8
ENDMDL
MODEL       20
REMARK  Name = ZINC000157243197
REMARK                            x       y       z     vdW  Elec       q    Type
REMARK                         _______ _______ _______ _____ _____    ______ ____
ROOT
ATOM      1  C   LIG    1        2.747  -2.214   1.225  0.00  0.00    +0.160 C 
ATOM      2  C   LIG    1        3.813  -1.132   1.408  0.00  0.00    +0.060 C 
ATOM      3  C   LIG    1        3.558  -0.380   2.715  0.00  0.00    +0.020 C 
ATOM      4  C   LIG    1        3.620  -1.360   3.888  0.00  0.00    -0.010 C 
ATOM      5  C   LIG    1        2.554  -2.442   3.706  0.00  0.00    +0.020 C 
ATOM      6  C   LIG    1        2.809  -3.195   2.398  0.00  0.00    +0.060 C 
ENDROOT
BRANCH   1   7
ATOM      7  N   LIG    1        1.418  -1.590   1.179  0.00  0.00    -0.510 N 
ATOM      8  H   LIG    1        0.710  -2.308   1.142  0.00  0.00    +0.420 HD
ATOM      9  H   LIG    1        1.282  -1.026   2.006  0.00  0.00    +0.420 HD
BRANCH   7  10
ATOM     10  C   LIG    1        1.317  -0.740  -0.015  0.00  0.00    +0.200 C 
ATOM     11  C   LIG    1        1.398  -1.611  -1.269  0.00  0.00    +0.090 C 
BRANCH  10  13
ATOM     12  C   LIG    1       -0.016   1.306   0.009  0.00  0.00    +0.130 C 
ATOM     13  C   LIG    1        0.002  -0.004   0.002  0.00  0.00    -0.090 C 
ENDBRANCH  10  13
ENDBRANCH   7  10
ENDBRANCH   1   7
BRANCH   4  14
ATOM     14  C   LIG    1        3.365  -0.608   5.196  0.00  0.00    +0.010 C 
BRANCH  14  15
ATOM     15  C   LIG    1        3.550  -1.562   6.378  0.00  0.00    -0.010 C 
ATOM     16  C   LIG    1        3.295  -0.809   7.685  0.00  0.00    +0.010 C 
ENDBRANCH  14  15
ENDBRANCH   4  14
TORSDOF 5
ENDMDL
MODEL       21
REMARK  Name = ZINC000157255063
REMARK                            x       y       z     vdW  Elec       q    Type
REMARK                         _______ _______ _______ _____ _____    ______ ____
ROOT
ATOM      1  C   LIG    1        2.684  -1.920   1.159  0.00  0.00    +0.160 C 
ENDROOT
BRANCH   1   2
ATOM      2  N   LIG    1        1.519  -1.027   1.222  0.00  0.00    -0.500 N 
ATOM      3  H   LIG    1        0.672  -1.575   1.180  0.00  0.00    +0.420 HD
ATOM      4  H   LIG    1        1.540  -0.506   2.086  0.00  0.00    +0.430 HD
BRANCH   2   5
ATOM      5  C   LIG    1        1.555  -0.094   0.088  0.00  0.00    +0.200 C 
ATOM      6  C   LIG    1        1.360  -0.870  -1.217  0.00  0.00    +0.090 C 
BRANCH   5   8
ATOM      7  C   LIG    1        0.743   2.197   0.320  0.00  0.00    +0.130 C 
ATOM      8  C   LIG    1        0.452   0.922   0.238  0.00  0.00    -0.090 C 
ENDBRANCH   5   8
ENDBRANCH   2   5
ENDBRANCH   1   2
BRANCH   1   9
ATOM      9  C   LIG    1        2.585  -2.966   2.272  0.00  0.00    +0.070 C 
BRANCH   9  10
ATOM     10  C   LIG    1        1.373  -3.864   2.021  0.00  0.00    -0.040 C 
ATOM     11  C   LIG    1        1.201  -4.829   3.196  0.00  0.00    +0.050 C 
ATOM     12  C   LIG    1        1.587  -4.662   0.733  0.00  0.00    +0.030 C 
ENDBRANCH   9  10
ENDBRANCH   1   9
BRANCH   1  13
ATOM     13  C   LIG    1        3.964  -1.101   1.340  0.00  0.00    +0.040 C 
BRANCH  13  14
ATOM     14  C   LIG    1        5.181  -2.008   1.146  0.00  0.00    -0.010 C 
ATOM     15  C   LIG    1        6.456  -1.226   1.465  0.00  0.00    +0.040 C 
ATOM     16  C   LIG    1        5.229  -2.494  -0.304  0.00  0.00    +0.020 C 
ENDBRANCH  13  14
ENDBRANCH   1  13
TORSDOF 7
ENDMDL
MODEL       22
REMARK  Name = ZINC000168969088
REMARK                            x       y       z     vdW  Elec       q    Type
REMARK                         _______ _______ _______ _____ _____    ______ ____
ROOT
ATOM      1  N   LIG    1        2.997  -1.823   1.401  0.00  0.00    -0.510 N 
ATOM      2  H   LIG    1        3.707  -1.233   0.995  0.00  0.00    +0.430 HD
ATOM      3  H   LIG    1        2.905  -2.665   0.851  0.00  0.00    +0.430 HD
ENDROOT
BRANCH   1   4
ATOM      4  C   LIG    1        3.378  -2.175   2.775  0.00  0.00    +0.170 C 
ATOM      5  C   LIG    1        2.365  -3.169   3.347  0.00  0.00    +0.090 C 
BRANCH   4   6
ATOM      6  C   LIG    1        4.770  -2.810   2.771  0.00  0.00    +0.050 C 
BRANCH   6   7
ATOM      7  C   LIG    1        5.802  -1.776   2.317  0.00  0.00    -0.000 C 
BRANCH   7   8
ATOM      8  C   LIG    1        7.194  -2.411   2.313  0.00  0.00    +0.020 C 
BRANCH   8   9
ATOM      9  C   LIG    1        8.225  -1.376   1.859  0.00  0.00    -0.030 C 
ATOM     10  C   LIG    1        7.953  -0.989   0.404  0.00  0.00    +0.020 C 
ATOM     11  C   LIG    1        9.630  -1.972   1.974  0.00  0.00    +0.030 C 
ENDBRANCH   8   9
ENDBRANCH   7   8
ENDBRANCH   6   7
ENDBRANCH   4   6
ENDBRANCH   1   4
BRANCH   1  12
ATOM     12  C   LIG    1        1.715  -1.106   1.417  0.00  0.00    +0.250 C 
BRANCH  12  13
ATOM     13  C   LIG    1        1.317  -0.740  -0.015  0.00  0.00    +0.070 C 
BRANCH  13  15
ATOM     14  C   LIG    1       -0.016   1.306   0.009  0.00  0.00    +0.050 C 
ATOM     15  C   LIG    1        0.002  -0.004   0.002  0.00  0.00    -0.150 C 
ATOM     16  C   LIG    1       -1.293  -0.775   0.010  0.00  0.00    +0.080 C 
ENDBRANCH  13  15
ENDBRANCH  12  13
ENDBRANCH   1  12
TORSDOF 8
ENDMDL
MODEL       23
REMARK  Name = ZINC000169122646
REMARK                            x       y       z     vdW  Elec       q    Type
REMARK                         _______ _______ _______ _____ _____    ______ ____
ROOT
ATOM      1  N   LIG    1       -0.264  -2.750  -1.010  0.00  0.00    -0.510 N 
ATOM      2  H   LIG    1       -0.489  -3.252  -0.164  0.00  0.00    +0.430 HD
ATOM      3  H   LIG    1        0.657  -2.346  -0.926  0.00  0.00    +0.420 HD
ENDROOT
BRANCH   1   4
ATOM      4  C   LIG    1       -0.292  -3.675  -2.151  0.00  0.00    +0.160 C 
ATOM      5  C   LIG    1        0.149  -2.938  -3.386  0.00  0.00    +0.040 C 
ATOM      6  C   LIG    1       -0.645  -3.482  -4.591  0.00  0.00    +0.040 C 
ATOM      7  C   LIG    1       -0.104  -4.738  -5.091  0.00  0.00    +0.010 C 
ATOM      8  C   LIG    1       -0.161  -5.863  -4.038  0.00  0.00    -0.020 C 
ATOM      9  C   LIG    1        0.994  -5.689  -3.089  0.00  0.00    +0.040 C 
ATOM     10  C   LIG    1       -0.059  -7.223  -4.733  0.00  0.00    +0.030 C 
ATOM     11  C   LIG    1        0.610  -4.883  -1.834  0.00  0.00    +0.030 C 
ENDBRANCH   1   4
BRANCH   1  12
ATOM     12  C   LIG    1       -1.250  -1.681  -1.222  0.00  0.00    +0.160 C 
ATOM     13  C   LIG    1       -2.659  -2.276  -1.202  0.00  0.00    +0.090 C 
BRANCH  12  14
ATOM     14  C   LIG    1       -1.120  -0.639  -0.110  0.00  0.00    +0.090 C 
BRANCH  14  16
ATOM     15  C   LIG    1        0.299   1.339  -0.294  0.00  0.00    +0.090 C 
ATOM     16  C   LIG    1        0.225   0.034  -0.207  0.00  0.00    -0.110 C 
ENDBRANCH  14  16
ENDBRANCH  12  14
ENDBRANCH   1  12
TORSDOF 4
ENDMDL
MODEL       24
REMARK  Name = ZINC000169122806
REMARK                            x       y       z     vdW  Elec       q    Type
REMARK                         _______ _______ _______ _____ _____    ______ ____
ROOT
ATOM      1  N   LIG    1       -0.201  -2.758  -0.898  0.00  0.00    -0.510 N 
ATOM      2  H   LIG    1       -1.040  -2.199  -0.939  0.00  0.00    +0.430 HD
ATOM      3  H   LIG    1       -0.213  -3.321  -0.061  0.00  0.00    +0.420 HD
ENDROOT
BRANCH   1   4
ATOM      4  C   LIG    1       -0.138  -3.633  -2.076  0.00  0.00    +0.170 C 
ATOM      5  C   LIG    1       -1.478  -4.384  -2.214  0.00  0.00    +0.040 C 
ATOM      6  C   LIG    1       -1.615  -4.859  -3.635  0.00  0.00    +0.030 C 
ATOM      7  C   LIG    1       -1.115  -6.304  -3.823  0.00  0.00    +0.020 C 
ATOM      8  C   LIG    1        0.192  -6.588  -3.060  0.00  0.00    -0.030 C 
ATOM      9  C   LIG    1        1.175  -5.453  -3.159  0.00  0.00    +0.070 C 
ATOM     10  C   LIG    1        0.838  -7.851  -3.635  0.00  0.00    +0.020 C 
ATOM     11  C   LIG    1        0.991  -4.540  -1.929  0.00  0.00    +0.010 C 
ENDBRANCH   1   4
BRANCH   1  12
ATOM     12  C   LIG    1        0.974  -1.877  -0.878  0.00  0.00    +0.160 C 
ATOM     13  C   LIG    1        0.920  -0.928  -2.078  0.00  0.00    +0.090 C 
BRANCH  12  14
ATOM     14  C   LIG    1        0.979  -1.062   0.417  0.00  0.00    +0.090 C 
BRANCH  14  16
ATOM     15  C   LIG    1        2.130  -1.787   2.444  0.00  0.00    +0.090 C 
ATOM     16  C   LIG    1        1.156  -1.988   1.592  0.00  0.00    -0.110 C 
ENDBRANCH  14  16
ENDBRANCH  12  14
ENDBRANCH   1  12
TORSDOF 4
ENDMDL
MODEL       25
REMARK  Name = ZINC000157243352
REMARK                            x       y       z     vdW  Elec       q    Type
REMARK                         _______ _______ _______ _____ _____    ______ ____
ROOT
ATOM      1  C   LIG    1        2.718  -2.195  -1.296  0.00  0.00    +0.170 C 
ATOM      2  C   LIG    1        2.680  -3.343  -0.286  0.00  0.00    +0.060 C 
ATOM      3  C   LIG    1        1.546  -4.304  -0.649  0.00  0.00    +0.020 C 
ATOM      4  C   LIG    1        1.784  -4.867  -2.051  0.00  0.00    -0.010 C 
ATOM      5  C   LIG    1        1.822  -3.719  -3.062  0.00  0.00    +0.020 C 
ATOM      6  C   LIG    1        2.956  -2.757  -2.699  0.00  0.00    +0.060 C 
ENDROOT
BRANCH   1   7
ATOM      7  N   LIG    1        1.438  -1.475  -1.268  0.00  0.00    -0.510 N 
ATOM      8  H   LIG    1        1.425  -0.782  -2.002  0.00  0.00    +0.430 HD
ATOM      9  H   LIG    1        0.681  -2.128  -1.409  0.00  0.00    +0.420 HD
BRANCH   7  10
ATOM     10  C   LIG    1        1.277  -0.813   0.034  0.00  0.00    +0.200 C 
ATOM     11  C   LIG    1       -0.114  -0.181   0.116  0.00  0.00    +0.090 C 
BRANCH  10  13
ATOM     12  C   LIG    1        3.245   0.151   1.110  0.00  0.00    +0.120 C 
ATOM     13  C   LIG    1        2.325   0.260   0.184  0.00  0.00    -0.090 C 
ENDBRANCH  10  13
ENDBRANCH   7  10
ENDBRANCH   1   7
BRANCH   4  14
ATOM     14  C   LIG    1        0.650  -5.828  -2.414  0.00  0.00    +0.010 C 
BRANCH  14  15
ATOM     15  C   LIG    1        0.951  -6.485  -3.763  0.00  0.00    -0.010 C 
ATOM     16  C   LIG    1       -0.183  -7.447  -4.126  0.00  0.00    +0.010 C 
ENDBRANCH  14  15
ENDBRANCH   4  14
TORSDOF 5
ENDMDL
MODEL       26
REMARK  Name = ZINC000681402190
REMARK                            x       y       z     vdW  Elec       q    Type
REMARK                         _______ _______ _______ _____ _____    ______ ____
ROOT
ATOM      1  N   LIG    1       -4.349  -1.689  -1.551  0.00  0.00    -0.350 N 
ATOM      2  H   LIG    1       -5.137  -1.065  -1.455  0.00  0.00    +0.420 HD
ENDROOT
BRANCH   1   3
ATOM      3  C   LIG    1       -4.616  -2.931  -0.814  0.00  0.00    +0.100 C 
ATOM      4  C   LIG    1       -5.957  -3.048  -0.087  0.00  0.00    +0.090 C 
ATOM      5  C   LIG    1       -5.703  -3.858  -1.360  0.00  0.00    +0.100 C 
ENDBRANCH   1   3
BRANCH   1   6
ATOM      6  C   LIG    1       -3.146  -1.045  -1.007  0.00  0.00    +0.250 C 
BRANCH   6   7
ATOM      7  C   LIG    1       -3.421  -0.573   0.422  0.00  0.00    +0.080 C 
BRANCH   7   9
ATOM      8  C   LIG    1       -2.052   1.389   0.909  0.00  0.00    +0.050 C 
ATOM      9  C   LIG    1       -2.187   0.088   0.979  0.00  0.00    -0.140 C 
ATOM     10  C   LIG    1       -1.108  -0.749   1.618  0.00  0.00    +0.080 C 
ENDBRANCH   7   9
ENDBRANCH   6   7
ENDBRANCH   1   6
BRANCH   1  11
ATOM     11  C   LIG    1       -4.140  -1.998  -2.972  0.00  0.00    +0.160 C 
BRANCH  11  12
ATOM     12  C   LIG    1       -2.841  -2.788  -3.136  0.00  0.00    +0.050 C 
ATOM     13  C   LIG    1       -3.026  -4.197  -2.567  0.00  0.00    +0.030 C 
ENDBRANCH  11  12
BRANCH  11  14
ATOM     14  C   LIG    1       -4.048  -0.695  -3.769  0.00  0.00    +0.050 C 
ATOM     15  C   LIG    1       -5.387   0.042  -3.697  0.00  0.00    +0.040 C 
ENDBRANCH  11  14
ENDBRANCH   1  11
TORSDOF 7
ENDMDL
MODEL       27
REMARK  Name = ZINC000393670058
REMARK                            x       y       z     vdW  Elec       q    Type
REMARK                         _______ _______ _______ _____ _____    ______ ____
ROOT
ATOM      1  N   LIG    1        3.951  -1.506   1.218  0.00  0.00    -0.510 N 
ATOM      2  H   LIG    1        4.082  -1.213   2.175  0.00  0.00    +0.430 HD
ATOM      3  H   LIG    1        3.815  -0.695   0.634  0.00  0.00    +0.420 HD
ENDROOT
BRANCH   1   4
ATOM      4  C   LIG    1        2.772  -2.378   1.130  0.00  0.00    +0.170 C 
BRANCH   4   5
ATOM      5  C   LIG    1        2.916  -3.532   2.124  0.00  0.00    +0.030 C 
ATOM      6  C   LIG    1        1.762  -4.518   1.931  0.00  0.00    +0.060 C 
ENDBRANCH   4   5
BRANCH   4   7
ATOM      7  C   LIG    1        1.516  -1.571   1.464  0.00  0.00    +0.070 C 
BRANCH   7   8
ATOM      8  C   LIG    1        1.304  -0.494   0.398  0.00  0.00    +0.050 C 
BRANCH   8  10
ATOM      9  C   LIG    1        0.135   1.604   0.835  0.00  0.00    +0.040 C 
ATOM     10  C   LIG    1        0.066   0.300   0.726  0.00  0.00    -0.050 C 
ENDBRANCH   8  10
ENDBRANCH   7   8
ENDBRANCH   4   7
ENDBRANCH   1   4
BRANCH   1  11
ATOM     11  C   LIG    1        5.139  -2.242   0.765  0.00  0.00    +0.260 C 
BRANCH  11  12
ATOM     12  C   LIG    1        6.342  -1.298   0.731  0.00  0.00    +0.070 C 
BRANCH  12  13
ATOM     13  C   LIG    1        7.580  -2.064   0.259  0.00  0.00    -0.140 C 
ATOM     14  C   LIG    1        8.151  -1.705  -1.114  0.00  0.00    +0.030 C 
ATOM     15  C   LIG    1        7.655  -3.528   0.695  0.00  0.00    +0.070 C 
ATOM     16  C   LIG    1        8.895  -1.289   0.157  0.00  0.00    +0.040 C 
ENDBRANCH  12  13
ENDBRANCH  11  12
ENDBRANCH   1  11
TORSDOF 8
ENDMDL
MODEL       28
REMARK  Name = ZINC000681399196
REMARK                            x       y       z     vdW  Elec       q    Type
REMARK                         _______ _______ _______ _____ _____    ______ ____
ROOT
ATOM      1  N   LIG    1       -2.908  -1.952  -1.137  0.00  0.00    -0.380 N 
ATOM      2  H   LIG    1       -3.020  -2.679  -0.446  0.00  0.00    +0.420 HD
ENDROOT
BRANCH   1   3
ATOM      3  C   LIG    1       -2.973  -2.541  -2.482  0.00  0.00    +0.160 C 
ATOM      4  C   LIG    1       -2.667  -1.464  -3.525  0.00  0.00    +0.040 C 
ATOM      5  C   LIG    1       -2.736  -2.077  -4.925  0.00  0.00    +0.030 C 
ATOM      6  C   LIG    1       -1.707  -3.204  -5.039  0.00  0.00    +0.020 C 
ATOM      7  C   LIG    1       -2.013  -4.281  -3.996  0.00  0.00    +0.030 C 
ATOM      8  C   LIG    1       -1.945  -3.668  -2.596  0.00  0.00    +0.040 C 
ENDBRANCH   1   3
BRANCH   1   9
ATOM      9  C   LIG    1       -3.981  -0.961  -0.984  0.00  0.00    +0.240 C 
ATOM     10  C   LIG    1       -5.338  -1.667  -1.031  0.00  0.00    +0.080 C 
ENDBRANCH   1   9
BRANCH   1  11
ATOM     11  C   LIG    1       -1.606  -1.297  -0.952  0.00  0.00    +0.250 C 
BRANCH  11  12
ATOM     12  C   LIG    1       -1.489  -0.793   0.487  0.00  0.00    +0.070 C 
BRANCH  12  14
ATOM     13  C   LIG    1       -0.050   1.179   0.545  0.00  0.00    +0.050 C 
ATOM     14  C   LIG    1       -0.154  -0.121   0.677  0.00  0.00    -0.150 C 
ATOM     15  C   LIG    1        1.062  -0.943   1.019  0.00  0.00    +0.070 C 
ENDBRANCH  12  14
ENDBRANCH  11  12
ENDBRANCH   1  11
TORSDOF 5
ENDMDL
MODEL       29
REMARK  Name = ZINC000393670056
REMARK                            x       y       z     vdW  Elec       q    Type
REMARK                         _______ _______ _______ _____ _____    ______ ____
ROOT
ATOM      1  N   LIG    1        2.623  -3.324  -0.004  0.00  0.00    -0.510 N 
ATOM      2  H   LIG    1        2.561  -2.740  -0.825  0.00  0.00    +0.430 HD
ATOM      3  H   LIG    1        1.792  -3.891   0.069  0.00  0.00    +0.430 HD
ENDROOT
BRANCH   1   4
ATOM      4  C   LIG    1        2.745  -2.478   1.191  0.00  0.00    +0.170 C 
BRANCH   4   5
ATOM      5  C   LIG    1        2.681  -3.353   2.444  0.00  0.00    +0.030 C 
ATOM      6  C   LIG    1        2.887  -2.483   3.685  0.00  0.00    +0.060 C 
ENDBRANCH   4   5
BRANCH   4   7
ATOM      7  C   LIG    1        1.599  -1.465   1.218  0.00  0.00    +0.070 C 
BRANCH   7   8
ATOM      8  C   LIG    1        1.735  -0.510   0.030  0.00  0.00    +0.040 C 
BRANCH   8  10
ATOM      9  C   LIG    1        0.866   1.772   0.047  0.00  0.00    +0.050 C 
ATOM     10  C   LIG    1        0.606   0.488   0.056  0.00  0.00    -0.070 C 
ENDBRANCH   8  10
ENDBRANCH   7   8
ENDBRANCH   4   7
ENDBRANCH   1   4
BRANCH   1  11
ATOM     11  C   LIG    1        3.802  -4.194  -0.110  0.00  0.00    +0.260 C 
BRANCH  11  12
ATOM     12  C   LIG    1        3.634  -5.136  -1.304  0.00  0.00    +0.070 C 
BRANCH  12  13
ATOM     13  C   LIG    1        4.862  -6.043  -1.414  0.00  0.00    -0.140 C 
ATOM     14  C   LIG    1        4.671  -7.531  -1.113  0.00  0.00    +0.030 C 
ATOM     15  C   LIG    1        6.192  -5.404  -1.010  0.00  0.00    +0.070 C 
ATOM     16  C   LIG    1        4.886  -7.064  -2.554  0.00  0.00    +0.040 C 
ENDBRANCH  12  13
ENDBRANCH  11  12
ENDBRANCH   1  11
TORSDOF 8
ENDMDL
MODEL       30
REMARK  Name = ZINC000681398749
REMARK                            x       y       z     vdW  Elec       q    Type
REMARK                         _______ _______ _______ _____ _____    ______ ____
ROOT
ATOM      1  N   LIG    1        3.004  -1.824   1.258  0.00  0.00    -0.390 N 
ATOM      2  H   LIG    1        3.012  -2.531   0.539  0.00  0.00    +0.420 HD
ENDROOT
BRANCH   1   3
ATOM      3  C   LIG    1        1.656  -1.249   1.365  0.00  0.00    +0.250 C 
BRANCH   3   4
ATOM      4  C   LIG    1        1.213  -0.731  -0.005  0.00  0.00    +0.070 C 
BRANCH   4   6
ATOM      5  C   LIG    1       -0.319   1.146   0.292  0.00  0.00    +0.050 C 
ATOM      6  C   LIG    1       -0.170  -0.141   0.104  0.00  0.00    -0.150 C 
ATOM      7  C   LIG    1       -1.380  -1.033  -0.002  0.00  0.00    +0.070 C 
ENDBRANCH   4   6
ENDBRANCH   3   4
ENDBRANCH   1   3
BRANCH   1   8
ATOM      8  C   LIG    1        3.381  -2.428   2.543  0.00  0.00    +0.250 C 
BRANCH   8   9
ATOM      9  C   LIG    1        2.469  -3.621   2.833  0.00  0.00    -0.030 C 
ATOM     10  C   LIG    1        2.773  -4.169   4.229  0.00  0.00    +0.070 C 
ATOM     11  C   LIG    1        2.712  -4.715   1.792  0.00  0.00    +0.030 C 
ENDBRANCH   8   9
ENDBRANCH   1   8
BRANCH   1  12
ATOM     12  C   LIG    1        3.962  -0.765   0.915  0.00  0.00    +0.250 C 
BRANCH  12  13
ATOM     13  C   LIG    1        5.339  -1.384   0.665  0.00  0.00    -0.030 C 
ATOM     14  C   LIG    1        6.355  -0.274   0.389  0.00  0.00    +0.070 C 
ATOM     15  C   LIG    1        5.265  -2.321  -0.542  0.00  0.00    +0.040 C 
ENDBRANCH  12  13
ENDBRANCH   1  12
TORSDOF 7
ENDMDL
MODEL       31
REMARK  Name = ZINC000681399175
REMARK                            x       y       z     vdW  Elec       q    Type
REMARK                         _______ _______ _______ _____ _____    ______ ____
ROOT
ATOM      1  N   LIG    1       -3.948  -2.219  -1.111  0.00  0.00    -0.380 N 
ATOM      2  H   LIG    1       -4.578  -1.908  -0.386  0.00  0.00    +0.420 HD
ENDROOT
BRANCH   1   3
ATOM      3  C   LIG    1       -2.854  -2.994  -0.510  0.00  0.00    +0.160 C 
ATOM      4  C   LIG    1       -2.243  -2.200   0.646  0.00  0.00    +0.080 C 
ATOM      5  C   LIG    1       -1.781  -3.264  -1.566  0.00  0.00    +0.090 C 
ENDBRANCH   1   3
BRANCH   1   6
ATOM      6  C   LIG    1       -3.395  -1.053  -1.812  0.00  0.00    +0.260 C 
BRANCH   6   7
ATOM      7  C   LIG    1       -3.034   0.030  -0.793  0.00  0.00    +0.080 C 
BRANCH   7   9
ATOM      8  C   LIG    1       -3.580   2.226  -1.711  0.00  0.00    +0.050 C 
ATOM      9  C   LIG    1       -2.672   1.301  -1.518  0.00  0.00    -0.140 C 
ATOM     10  C   LIG    1       -1.267   1.508  -2.022  0.00  0.00    +0.070 C 
ENDBRANCH   7   9
ENDBRANCH   6   7
ENDBRANCH   1   6
BRANCH   1  11
ATOM     11  C   LIG    1       -4.679  -3.063  -2.065  0.00  0.00    +0.250 C 
BRANCH  11  12
ATOM     12  C   LIG    1       -5.331  -4.230  -1.320  0.00  0.00    +0.030 C 
BRANCH  12  13
ATOM     13  C   LIG    1       -6.048  -5.138  -2.321  0.00  0.00    +0.020 C 
BRANCH  13  14
ATOM     14  C   LIG    1       -6.699  -6.304  -1.575  0.00  0.00    +0.000 C 
ATOM     15  C   LIG    1       -7.416  -7.212  -2.577  0.00  0.00    +0.020 C 
ENDBRANCH  13  14
ENDBRANCH  12  13
ENDBRANCH  11  12
ENDBRANCH   1  11
TORSDOF 8
ENDMDL
MODEL       32
REMARK  Name = ZINC000681401449
REMARK                            x       y       z     vdW  Elec       q    Type
REMARK                         _______ _______ _______ _____ _____    ______ ____
ROOT
ATOM      1  N   LIG    1       -2.942  -1.888  -1.417  0.00  0.00    -0.380 N 
ATOM      2  C   LIG    1       -4.060  -1.085  -0.904  0.00  0.00    +0.320 C 
ATOM      3  H   LIG    1       -2.860  -2.735  -0.874  0.00  0.00    +0.420 HD
ENDROOT
BRANCH   1   4
ATOM      4  C   LIG    1       -3.191  -2.231  -2.824  0.00  0.00    +0.170 C 
ATOM      5  C   LIG    1       -2.129  -3.181  -3.308  0.00  0.00    +0.020 C 
ATOM      6  C   LIG    1       -1.777  -2.965  -4.792  0.00  0.00    +0.030 C 
ATOM      7  C   LIG    1       -3.018  -2.714  -5.670  0.00  0.00    +0.000 C 
ATOM      8  C   LIG    1       -4.167  -3.618  -5.314  0.00  0.00    +0.020 C 
ATOM      9  C   LIG    1       -5.080  -2.878  -4.314  0.00  0.00    +0.020 C 
ATOM     10  C   LIG    1       -4.563  -2.922  -2.954  0.00  0.00    +0.050 C 
ENDBRANCH   1   4
BRANCH   1  11
ATOM     11  C   LIG    1       -1.696  -1.117  -1.313  0.00  0.00    +0.250 C 
BRANCH  11  12
ATOM     12  C   LIG    1       -1.357  -0.891   0.161  0.00  0.00    +0.070 C 
BRANCH  12  14
ATOM     13  C   LIG    1       -0.124   1.202   0.402  0.00  0.00    +0.050 C 
ATOM     14  C   LIG    1       -0.079  -0.100   0.268  0.00  0.00    -0.150 C 
ATOM     15  C   LIG    1        1.251  -0.807   0.220  0.00  0.00    +0.070 C 
ENDBRANCH  12  14
ENDBRANCH  11  12
ENDBRANCH   1  11
TORSDOF 4
ENDMDL
MODEL       33
REMARK  Name = ZINC000157470261
REMARK                            x       y       z     vdW  Elec       q    Type
REMARK                         _______ _______ _______ _____ _____    ______ ____
ROOT
ATOM      1  N   LIG    1       -0.250  -2.743  -0.951  0.00  0.00    -0.510 N 
ATOM      2  H   LIG    1       -1.044  -2.131  -1.059  0.00  0.00    +0.420 HD
ATOM      3  H   LIG    1       -0.349  -3.276  -0.099  0.00  0.00    +0.420 HD
ENDROOT
BRANCH   1   4
ATOM      4  C   LIG    1       -0.178  -3.660  -2.096  0.00  0.00    +0.160 C 
ATOM      5  C   LIG    1       -1.517  -4.383  -2.255  0.00  0.00    +0.040 C 
ATOM      6  C   LIG    1       -1.442  -5.338  -3.448  0.00  0.00    +0.050 C 
ATOM      7  C   LIG    1       -0.333  -6.365  -3.212  0.00  0.00    +0.030 C 
ATOM      8  C   LIG    1        1.006  -5.641  -3.053  0.00  0.00    -0.050 C 
ATOM      9  C   LIG    1        1.310  -4.846  -4.324  0.00  0.00    +0.030 C 
ATOM     10  C   LIG    1        2.115  -6.668  -2.816  0.00  0.00    +0.040 C 
ATOM     11  C   LIG    1        0.931  -4.687  -1.859  0.00  0.00    +0.050 C 
ENDBRANCH   1   4
BRANCH   1  12
ATOM     12  C   LIG    1        0.981  -1.943  -0.886  0.00  0.00    +0.170 C 
ATOM     13  C   LIG    1        1.062  -1.033  -2.113  0.00  0.00    +0.090 C 
BRANCH  12  14
ATOM     14  C   LIG    1        0.967  -1.089   0.383  0.00  0.00    +0.090 C 
BRANCH  14  16
ATOM     15  C   LIG    1        1.947  -1.823   2.496  0.00  0.00    +0.090 C 
ATOM     16  C   LIG    1        1.012  -1.986   1.593  0.00  0.00    -0.110 C 
ENDBRANCH  14  16
ENDBRANCH  12  14
ENDBRANCH   1  12
TORSDOF 4
ENDMDL
MODEL       34
REMARK  Name = ZINC000308716963
REMARK                            x       y       z     vdW  Elec       q    Type
REMARK                         _______ _______ _______ _____ _____    ______ ____
ROOT
ATOM      1  N   LIG    1       -3.905  -1.599  -1.232  0.00  0.00    -0.510 N 
ATOM      2  H   LIG    1       -4.044  -1.299  -2.185  0.00  0.00    +0.430 HD
ATOM      3  H   LIG    1       -3.791  -0.792  -0.638  0.00  0.00    +0.430 HD
ENDROOT
BRANCH   1   4
ATOM      4  C   LIG    1       -2.703  -2.440  -1.153  0.00  0.00    +0.170 C 
BRANCH   4   5
ATOM      5  C   LIG    1       -2.815  -3.586  -2.159  0.00  0.00    +0.030 C 
ATOM      6  C   LIG    1       -1.635  -4.543  -1.977  0.00  0.00    +0.060 C 
ENDBRANCH   4   5
BRANCH   4   7
ATOM      7  C   LIG    1       -1.469  -1.595  -1.477  0.00  0.00    +0.070 C 
BRANCH   7   8
ATOM      8  C   LIG    1       -1.286  -0.525  -0.399  0.00  0.00    +0.050 C 
BRANCH   8  10
ATOM      9  C   LIG    1       -0.174   1.609  -0.813  0.00  0.00    +0.040 C 
ATOM     10  C   LIG    1       -0.070   0.307  -0.718  0.00  0.00    -0.050 C 
ENDBRANCH   8  10
ENDBRANCH   7   8
ENDBRANCH   4   7
ENDBRANCH   1   4
BRANCH   1  11
ATOM     11  C   LIG    1       -5.073  -2.373  -0.787  0.00  0.00    +0.250 C 
BRANCH  11  12
ATOM     12  C   LIG    1       -6.301  -1.461  -0.742  0.00  0.00    +0.040 C 
BRANCH  12  13
ATOM     13  C   LIG    1       -7.517  -2.266  -0.279  0.00  0.00    -0.010 C 
ATOM     14  C   LIG    1       -7.679  -2.312   1.250  0.00  0.00    +0.010 C 
ATOM     15  C   LIG    1       -9.191  -2.153   1.015  0.00  0.00    +0.010 C 
ATOM     16  C   LIG    1       -8.832  -1.471  -0.316  0.00  0.00    +0.010 C 
ENDBRANCH  12  13
ENDBRANCH  11  12
ENDBRANCH   1  11
TORSDOF 8
ENDMDL
MODEL       35
REMARK  Name = ZINC000681404112
REMARK                            x       y       z     vdW  Elec       q    Type
REMARK                         _______ _______ _______ _____ _____    ______ ____
ROOT
ATOM      1  N   LIG    1        2.884  -1.940   1.392  0.00  0.00    -0.380 N 
ATOM      2  C   LIG    1        3.968  -1.106   0.932  0.00  0.00    +0.240 C 
ATOM      3  C   LIG    1        4.875  -1.963   0.035  0.00  0.00    +0.050 C 
ATOM      4  C   LIG    1        5.846  -2.750   0.786  0.00  0.00    +0.030 C 
ATOM      5  C   LIG    1        5.136  -3.745   1.738  0.00  0.00    +0.020 C 
ATOM      6  C   LIG    1        4.599  -2.987   2.922  0.00  0.00    +0.060 C 
ATOM      7  C   LIG    1        3.151  -2.499   2.734  0.00  0.00    +0.160 C 
ATOM      8  H   LIG    1        2.755  -2.700   0.740  0.00  0.00    +0.420 HD
ENDROOT
BRANCH   7   9
ATOM      9  C   LIG    1        2.858  -1.422   3.780  0.00  0.00    +0.020 C 
ATOM     10  C   LIG    1        2.988  -2.022   5.181  0.00  0.00    +0.060 C 
ENDBRANCH   7   9
BRANCH   1  11
ATOM     11  C   LIG    1        1.654  -1.140   1.443  0.00  0.00    +0.250 C 
BRANCH  11  12
ATOM     12  C   LIG    1        1.270  -0.702   0.028  0.00  0.00    +0.070 C 
BRANCH  12  14
ATOM     13  C   LIG    1       -0.112   1.307   0.144  0.00  0.00    +0.050 C 
ATOM     14  C   LIG    1       -0.062   0.000   0.063  0.00  0.00    -0.150 C 
ATOM     15  C   LIG    1       -1.338  -0.800   0.005  0.00  0.00    +0.070 C 
ENDBRANCH  12  14
ENDBRANCH  11  12
ENDBRANCH   1  11
TORSDOF 4
ENDMDL
MODEL       36
REMARK  Name = ZINC000308698463
REMARK                            x       y       z     vdW  Elec       q    Type
REMARK                         _______ _______ _______ _____ _____    ______ ____
ROOT
ATOM      1  N   LIG    1        3.718  -1.466   1.488  0.00  0.00    -0.500 N 
ATOM      2  H   LIG    1        3.526  -1.308   2.466  0.00  0.00    +0.420 HD
ATOM      3  H   LIG    1        3.685  -0.588   0.992  0.00  0.00    +0.430 HD
ENDROOT
BRANCH   1   4
ATOM      4  C   LIG    1        5.053  -2.062   1.341  0.00  0.00    +0.160 C 
ATOM      5  C   LIG    1        5.251  -3.221   2.349  0.00  0.00    +0.050 C 
ATOM      6  C   LIG    1        6.781  -3.321   2.516  0.00  0.00    +0.050 C 
ATOM      7  C   LIG    1        7.355  -1.943   2.141  0.00  0.00    +0.000 C 
ATOM      8  C   LIG    1        8.095  -1.340   3.336  0.00  0.00    +0.040 C 
ATOM      9  C   LIG    1        6.153  -1.053   1.754  0.00  0.00    +0.050 C 
ENDBRANCH   1   4
BRANCH   1  10
ATOM     10  C   LIG    1        2.711  -2.380   0.933  0.00  0.00    +0.170 C 
BRANCH  10  11
ATOM     11  C   LIG    1        3.227  -2.972  -0.380  0.00  0.00    +0.050 C 
ATOM     12  C   LIG    1        3.470  -1.846  -1.386  0.00  0.00    +0.020 C 
ENDBRANCH  10  11
BRANCH  10  13
ATOM     13  C   LIG    1        2.441  -3.508   1.931  0.00  0.00    +0.060 C 
BRANCH  13  14
ATOM     14  C   LIG    1        1.885  -2.920   3.229  0.00  0.00    +0.050 C 
BRANCH  14  16
ATOM     15  C   LIG    1        2.158  -3.992   5.405  0.00  0.00    +0.040 C 
ATOM     16  C   LIG    1        1.620  -4.031   4.211  0.00  0.00    -0.050 C 
ENDBRANCH  14  16
ENDBRANCH  13  14
ENDBRANCH  10  13
ENDBRANCH   1  10
TORSDOF 6
ENDMDL
MODEL       37
REMARK  Name = ZINC000681405937
REMARK                            x       y       z     vdW  Elec       q    Type
REMARK                         _______ _______ _______ _____ _____    ______ ____
ROOT
ATOM      1  N   LIG    1       -2.761  -1.917  -0.812  0.00  0.00    -0.380 N 
ATOM      2  H   LIG    1       -2.747  -2.414   0.066  0.00  0.00    +0.420 HD
ENDROOT
BRANCH   1   3
ATOM      3  C   LIG    1       -2.657  -2.877  -1.920  0.00  0.00    +0.150 C 
ATOM      4  C   LIG    1       -1.330  -3.670  -1.827  0.00  0.00    +0.040 C 
ATOM      5  C   LIG    1       -1.649  -4.963  -2.619  0.00  0.00    +0.050 C 
ATOM      6  C   LIG    1       -3.112  -5.283  -2.248  0.00  0.00    +0.030 C 
ATOM      7  C   LIG    1       -3.753  -3.956  -1.803  0.00  0.00    +0.050 C 
ENDBRANCH   1   3
BRANCH   1   8
ATOM      8  C   LIG    1       -4.018  -1.167  -0.930  0.00  0.00    +0.160 C 
ATOM      9  C   LIG    1       -5.199  -2.107  -0.679  0.00  0.00    +0.090 C 
ATOM     10  C   LIG    1       -4.128  -0.574  -2.337  0.00  0.00    +0.080 C 
ENDBRANCH   1   8
BRANCH   1  11
ATOM     11  C   LIG    1       -1.627  -0.985  -0.864  0.00  0.00    +0.250 C 
BRANCH  11  12
ATOM     12  C   LIG    1       -1.702  -0.023   0.324  0.00  0.00    +0.070 C 
BRANCH  12  14
ATOM     13  C   LIG    1       -0.491   2.028  -0.212  0.00  0.00    +0.050 C 
ATOM     14  C   LIG    1       -0.470   0.843   0.347  0.00  0.00    -0.150 C 
ATOM     15  C   LIG    1        0.787   0.347   1.014  0.00  0.00    +0.070 C 
ENDBRANCH  12  14
ENDBRANCH  11  12
ENDBRANCH   1  11
TORSDOF 5
ENDMDL
MODEL       38
REMARK  Name = ZINC000681404114
REMARK                            x       y       z     vdW  Elec       q    Type
REMARK                         _______ _______ _______ _____ _____    ______ ____
ROOT
ATOM      1  N   LIG    1        2.985  -1.943   1.377  0.00  0.00    -0.380 N 
ATOM      2  C   LIG    1        3.961  -1.069   0.691  0.00  0.00    +0.250 C 
ATOM      3  C   LIG    1        5.426  -1.397   1.032  0.00  0.00    +0.060 C 
ATOM      4  C   LIG    1        5.721  -2.873   1.060  0.00  0.00    +0.020 C 
ATOM      5  C   LIG    1        5.516  -3.397   2.503  0.00  0.00    +0.030 C 
ATOM      6  C   LIG    1        4.099  -3.519   2.820  0.00  0.00    +0.050 C 
ATOM      7  C   LIG    1        3.348  -2.178   2.753  0.00  0.00    +0.160 C 
ATOM      8  H   LIG    1        2.940  -2.828   0.893  0.00  0.00    +0.420 HD
ENDROOT
BRANCH   7   9
ATOM      9  C   LIG    1        2.087  -2.247   3.616  0.00  0.00    +0.030 C 
ATOM     10  C   LIG    1        2.482  -2.427   5.083  0.00  0.00    +0.060 C 
ENDBRANCH   7   9
BRANCH   1  11
ATOM     11  C   LIG    1        1.661  -1.308   1.333  0.00  0.00    +0.250 C 
BRANCH  11  12
ATOM     12  C   LIG    1        1.226  -1.135  -0.124  0.00  0.00    +0.070 C 
BRANCH  12  14
ATOM     13  C   LIG    1       -0.231   0.815  -0.313  0.00  0.00    +0.050 C 
ATOM     14  C   LIG    1       -0.132  -0.483  -0.169  0.00  0.00    -0.140 C 
ATOM     15  C   LIG    1       -1.376  -1.325  -0.047  0.00  0.00    +0.070 C 
ENDBRANCH  12  14
ENDBRANCH  11  12
ENDBRANCH   1  11
TORSDOF 4
ENDMDL
MODEL       39
REMARK  Name = ZINC000681403875
REMARK                            x       y       z     vdW  Elec       q    Type
REMARK                         _______ _______ _______ _____ _____    ______ ____
ROOT
ATOM      1  N   LIG    1        4.143  -5.127   3.433  0.00  0.00    -0.390 N 
ATOM      2  C   LIG    1        3.116  -6.162   3.255  0.00  0.00    +0.310 C 
ATOM      3  H   LIG    1        3.972  -4.628   4.293  0.00  0.00    +0.420 HD
ENDROOT
BRANCH   1   4
ATOM      4  C   LIG    1        4.093  -4.188   2.304  0.00  0.00    +0.250 C 
BRANCH   4   5
ATOM      5  C   LIG    1        2.757  -3.441   2.321  0.00  0.00    +0.030 C 
BRANCH   5   6
ATOM      6  C   LIG    1        2.705  -2.464   1.145  0.00  0.00    +0.020 C 
BRANCH   6   7
ATOM      7  C   LIG    1        1.370  -1.717   1.161  0.00  0.00    +0.020 C 
BRANCH   7   8
ATOM      8  C   LIG    1        1.317  -0.740  -0.015  0.00  0.00    +0.050 C 
BRANCH   8  10
ATOM      9  C   LIG    1       -0.016   1.306   0.009  0.00  0.00    +0.020 C 
ATOM     10  C   LIG    1        0.002  -0.004   0.002  0.00  0.00    -0.060 C 
ENDBRANCH   8  10
ENDBRANCH   7   8
ENDBRANCH   6   7
ENDBRANCH   5   6
ENDBRANCH   4   5
ENDBRANCH   1   4
BRANCH   1  11
ATOM     11  C   LIG    1        5.469  -5.756   3.488  0.00  0.00    +0.250 C 
BRANCH  11  12
ATOM     12  C   LIG    1        5.564  -6.638   4.734  0.00  0.00    +0.070 C 
BRANCH  12  13
ATOM     13  C   LIG    1        6.924  -7.284   4.790  0.00  0.00    -0.150 C 
ATOM     14  C   LIG    1        7.181  -8.566   4.040  0.00  0.00    +0.080 C 
ATOM     15  C   LIG    1        7.883  -6.732   5.491  0.00  0.00    +0.050 C 
ENDBRANCH  12  13
ENDBRANCH  11  12
ENDBRANCH   1  11
TORSDOF 9
ENDMDL
MODEL       40
REMARK  Name = ZINC000082847721
REMARK                            x       y       z     vdW  Elec       q    Type
REMARK                         _______ _______ _______ _____ _____    ______ ____
ROOT
ATOM      1  N   LIG    1       -2.658  -3.451  -2.307  0.00  0.00    -0.510 N 
ATOM      2  H   LIG    1       -1.884  -4.093  -2.235  0.00  0.00    +0.430 HD
ATOM      3  H   LIG    1       -2.583  -2.929  -3.167  0.00  0.00    +0.420 HD
ENDROOT
BRANCH   1   4
ATOM      4  C   LIG    1       -3.920  -4.202  -2.299  0.00  0.00    +0.170 C 
ATOM      5  C   LIG    1       -5.088  -3.242  -2.534  0.00  0.00    +0.060 C 
ATOM      6  C   LIG    1       -4.915  -2.549  -3.887  0.00  0.00    +0.020 C 
ATOM      7  C   LIG    1       -4.889  -3.601  -4.998  0.00  0.00    +0.030 C 
ATOM      8  C   LIG    1       -3.722  -4.562  -4.764  0.00  0.00    -0.040 C 
ATOM      9  C   LIG    1       -3.894  -5.254  -3.410  0.00  0.00    +0.060 C 
BRANCH   8  10
ATOM     10  C   LIG    1       -3.696  -5.614  -5.875  0.00  0.00    +0.020 C 
ATOM     11  C   LIG    1       -3.399  -4.934  -7.213  0.00  0.00    +0.010 C 
ENDBRANCH   8  10
ENDBRANCH   1   4
BRANCH   1  12
ATOM     12  C   LIG    1       -2.633  -2.524  -1.168  0.00  0.00    +0.250 C 
BRANCH  12  13
ATOM     13  C   LIG    1       -1.319  -1.741  -1.176  0.00  0.00    +0.040 C 
BRANCH  13  14
ATOM     14  C   LIG    1       -1.293  -0.775   0.010  0.00  0.00    +0.070 C 
BRANCH  14  16
ATOM     15  C   LIG    1       -0.016   1.306   0.009  0.00  0.00    +0.030 C 
ATOM     16  C   LIG    1        0.002  -0.004   0.002  0.00  0.00    -0.070 C 
ENDBRANCH  14  16
ENDBRANCH  13  14
ENDBRANCH  12  13
ENDBRANCH   1  12
TORSDOF 6
ENDMDL
MODEL       41
REMARK  Name = ZINC000082847722
REMARK                            x       y       z     vdW  Elec       q    Type
REMARK                         _______ _______ _______ _____ _____    ______ ____
ROOT
ATOM      1  N   LIG    1       -2.658  -3.451  -2.307  0.00  0.00    -0.510 N 
ATOM      2  H   LIG    1       -1.884  -4.093  -2.235  0.00  0.00    +0.420 HD
ATOM      3  H   LIG    1       -2.583  -2.929  -3.167  0.00  0.00    +0.430 HD
ENDROOT
BRANCH   1   4
ATOM      4  C   LIG    1       -3.920  -4.202  -2.299  0.00  0.00    +0.170 C 
ATOM      5  C   LIG    1       -3.978  -5.090  -1.054  0.00  0.00    +0.060 C 
ATOM      6  C   LIG    1       -2.801  -6.068  -1.071  0.00  0.00    +0.020 C 
ATOM      7  C   LIG    1       -2.882  -6.942  -2.324  0.00  0.00    +0.030 C 
ATOM      8  C   LIG    1       -2.825  -6.055  -3.569  0.00  0.00    -0.040 C 
ATOM      9  C   LIG    1       -4.001  -5.076  -3.553  0.00  0.00    +0.060 C 
BRANCH   8  10
ATOM     10  C   LIG    1       -2.906  -6.928  -4.822  0.00  0.00    +0.020 C 
ATOM     11  C   LIG    1       -1.665  -7.820  -4.903  0.00  0.00    +0.010 C 
ENDBRANCH   8  10
ENDBRANCH   1   4
BRANCH   1  12
ATOM     12  C   LIG    1       -2.633  -2.524  -1.168  0.00  0.00    +0.250 C 
BRANCH  12  13
ATOM     13  C   LIG    1       -1.319  -1.741  -1.176  0.00  0.00    +0.040 C 
BRANCH  13  14
ATOM     14  C   LIG    1       -1.293  -0.775   0.010  0.00  0.00    +0.070 C 
BRANCH  14  16
ATOM     15  C   LIG    1       -0.016   1.306   0.009  0.00  0.00    +0.030 C 
ATOM     16  C   LIG    1        0.002  -0.004   0.002  0.00  0.00    -0.070 C 
ENDBRANCH  14  16
ENDBRANCH  13  14
ENDBRANCH  12  13
ENDBRANCH   1  12
TORSDOF 6
ENDMDL
MODEL       42
REMARK  Name = ZINC000082847720
REMARK                            x       y       z     vdW  Elec       q    Type
REMARK                         _______ _______ _______ _____ _____    ______ ____
ROOT
ATOM      1  N   LIG    1       -2.658  -3.451  -2.307  0.00  0.00    -0.510 N 
ATOM      2  H   LIG    1       -1.884  -4.093  -2.235  0.00  0.00    +0.430 HD
ATOM      3  H   LIG    1       -2.583  -2.929  -3.167  0.00  0.00    +0.430 HD
ENDROOT
BRANCH   1   4
ATOM      4  C   LIG    1       -3.920  -4.202  -2.299  0.00  0.00    +0.170 C 
ATOM      5  C   LIG    1       -5.088  -3.242  -2.534  0.00  0.00    +0.040 C 
ATOM      6  C   LIG    1       -6.402  -4.024  -2.525  0.00  0.00    +0.030 C 
ATOM      7  C   LIG    1       -6.376  -5.076  -3.636  0.00  0.00    +0.020 C 
ATOM      8  C   LIG    1       -5.209  -6.037  -3.402  0.00  0.00    +0.000 C 
ATOM      9  C   LIG    1       -3.894  -5.254  -3.410  0.00  0.00    +0.040 C 
BRANCH   8  10
ATOM     10  C   LIG    1       -5.183  -7.089  -4.513  0.00  0.00    +0.020 C 
ATOM     11  C   LIG    1       -6.443  -7.953  -4.426  0.00  0.00    +0.020 C 
ENDBRANCH   8  10
ENDBRANCH   1   4
BRANCH   1  12
ATOM     12  C   LIG    1       -2.633  -2.524  -1.168  0.00  0.00    +0.250 C 
BRANCH  12  13
ATOM     13  C   LIG    1       -1.319  -1.741  -1.176  0.00  0.00    +0.040 C 
BRANCH  13  14
ATOM     14  C   LIG    1       -1.293  -0.775   0.010  0.00  0.00    +0.070 C 
BRANCH  14  16
ATOM     15  C   LIG    1       -0.016   1.306   0.009  0.00  0.00    +0.030 C 
ATOM     16  C   LIG    1        0.002  -0.004   0.002  0.00  0.00    -0.070 C 
ENDBRANCH  14  16
ENDBRANCH  13  14
ENDBRANCH  12  13
ENDBRANCH   1  12
TORSDOF 6
ENDMDL
MODEL       43
REMARK  Name = ZINC000082847723
REMARK                            x       y       z     vdW  Elec       q    Type
REMARK                         _______ _______ _______ _____ _____    ______ ____
ROOT
ATOM      1  N   LIG    1       -2.658  -3.451  -2.307  0.00  0.00    -0.510 N 
ATOM      2  H   LIG    1       -1.884  -4.093  -2.235  0.00  0.00    +0.430 HD
ATOM      3  H   LIG    1       -2.583  -2.929  -3.167  0.00  0.00    +0.430 HD
ENDROOT
BRANCH   1   4
ATOM      4  C   LIG    1       -3.920  -4.202  -2.299  0.00  0.00    +0.170 C 
ATOM      5  C   LIG    1       -3.978  -5.090  -1.054  0.00  0.00    +0.040 C 
ATOM      6  C   LIG    1       -5.292  -5.873  -1.046  0.00  0.00    +0.040 C 
ATOM      7  C   LIG    1       -5.373  -6.747  -2.299  0.00  0.00    +0.020 C 
ATOM      8  C   LIG    1       -5.316  -5.859  -3.544  0.00  0.00    +0.000 C 
ATOM      9  C   LIG    1       -4.001  -5.076  -3.553  0.00  0.00    +0.040 C 
BRANCH   8  10
ATOM     10  C   LIG    1       -5.397  -6.733  -4.798  0.00  0.00    +0.020 C 
ATOM     11  C   LIG    1       -6.763  -7.420  -4.853  0.00  0.00    +0.020 C 
ENDBRANCH   8  10
ENDBRANCH   1   4
BRANCH   1  12
ATOM     12  C   LIG    1       -2.633  -2.524  -1.168  0.00  0.00    +0.250 C 
BRANCH  12  13
ATOM     13  C   LIG    1       -1.319  -1.741  -1.176  0.00  0.00    +0.040 C 
BRANCH  13  14
ATOM     14  C   LIG    1       -1.293  -0.775   0.010  0.00  0.00    +0.070 C 
BRANCH  14  16
ATOM     15  C   LIG    1       -0.016   1.306   0.009  0.00  0.00    +0.030 C 
ATOM     16  C   LIG    1        0.002  -0.004   0.002  0.00  0.00    -0.070 C 
ENDBRANCH  14  16
ENDBRANCH  13  14
ENDBRANCH  12  13
ENDBRANCH   1  12
TORSDOF 6
ENDMDL
MODEL       44
REMARK  Name = ZINC000681412780
REMARK                            x       y       z     vdW  Elec       q    Type
REMARK                         _______ _______ _______ _____ _____    ______ ____
ROOT
ATOM      1  N   LIG    1        2.868  -1.827   1.441  0.00  0.00    -0.380 N 
ATOM      2  C   LIG    1        3.809  -0.914   0.781  0.00  0.00    +0.240 C 
ATOM      3  C   LIG    1        5.150  -1.620   0.572  0.00  0.00    +0.060 C 
ATOM      4  C   LIG    1        5.715  -2.041   1.932  0.00  0.00    +0.030 C 
ATOM      5  C   LIG    1        4.694  -2.934   2.644  0.00  0.00    +0.060 C 
ATOM      6  C   LIG    1        3.370  -2.177   2.775  0.00  0.00    +0.170 C 
ATOM      7  H   LIG    1        2.771  -2.665   0.889  0.00  0.00    +0.420 HD
ENDROOT
BRANCH   1   8
ATOM      8  C   LIG    1        1.560  -1.172   1.569  0.00  0.00    +0.250 C 
BRANCH   8   9
ATOM      9  C   LIG    1        0.970  -0.936   0.177  0.00  0.00    +0.070 C 
BRANCH   9  11
ATOM     10  C   LIG    1       -0.463   1.040   0.225  0.00  0.00    +0.050 C 
ATOM     11  C   LIG    1       -0.373  -0.264   0.308  0.00  0.00    -0.150 C 
ATOM     12  C   LIG    1       -1.611  -1.092   0.534  0.00  0.00    +0.080 C 
ENDBRANCH   9  11
ENDBRANCH   8   9
ENDBRANCH   1   8
BRANCH   6  13
ATOM     13  C   LIG    1        3.592  -0.901   3.590  0.00  0.00    +0.020 C 
BRANCH  13  14
ATOM     14  C   LIG    1        3.981  -1.271   5.022  0.00  0.00    +0.020 C 
ATOM     15  C   LIG    1        4.077  -0.000   5.869  0.00  0.00    +0.030 C 
ENDBRANCH  13  14
ENDBRANCH   6  13
TORSDOF 5
ENDMDL
MODEL       45
REMARK  Name = ZINC000681412781
REMARK                            x       y       z     vdW  Elec       q    Type
REMARK                         _______ _______ _______ _____ _____    ______ ____
ROOT
ATOM      1  N   LIG    1        3.071  -1.961   1.354  0.00  0.00    -0.380 N 
ATOM      2  C   LIG    1        4.090  -1.091   0.754  0.00  0.00    +0.250 C 
ATOM      3  C   LIG    1        5.456  -1.776   0.824  0.00  0.00    +0.050 C 
ATOM      4  C   LIG    1        5.811  -2.046   2.289  0.00  0.00    +0.030 C 
ATOM      5  C   LIG    1        4.704  -2.892   2.925  0.00  0.00    +0.060 C 
ATOM      6  C   LIG    1        3.367  -2.164   2.777  0.00  0.00    +0.170 C 
ATOM      7  H   LIG    1        3.070  -2.852   0.881  0.00  0.00    +0.420 HD
ENDROOT
BRANCH   1   8
ATOM      8  C   LIG    1        1.750  -1.333   1.214  0.00  0.00    +0.260 C 
BRANCH   8   9
ATOM      9  C   LIG    1        1.385  -1.238  -0.268  0.00  0.00    +0.070 C 
BRANCH   9  11
ATOM     10  C   LIG    1       -0.064   0.695  -0.627  0.00  0.00    +0.050 C 
ATOM     11  C   LIG    1        0.029  -0.594  -0.411  0.00  0.00    -0.150 C 
ATOM     12  C   LIG    1       -1.218  -1.433  -0.306  0.00  0.00    +0.080 C 
ENDBRANCH   9  11
ENDBRANCH   8   9
ENDBRANCH   1   8
BRANCH   6  13
ATOM     13  C   LIG    1        2.256  -3.005   3.410  0.00  0.00    +0.030 C 
BRANCH  13  14
ATOM     14  C   LIG    1        2.527  -3.162   4.908  0.00  0.00    +0.030 C 
ATOM     15  C   LIG    1        1.478  -4.092   5.521  0.00  0.00    +0.030 C 
ENDBRANCH  13  14
ENDBRANCH   6  13
TORSDOF 5
ENDMDL
MODEL       46
REMARK  Name = ZINC000083387972
REMARK                            x       y       z     vdW  Elec       q    Type
REMARK                         _______ _______ _______ _____ _____    ______ ____
ROOT
ATOM      1  N   LIG    1       -2.658  -3.451  -2.307  0.00  0.00    -0.510 N 
ATOM      2  H   LIG    1       -1.884  -4.093  -2.235  0.00  0.00    +0.420 HD
ATOM      3  H   LIG    1       -2.583  -2.929  -3.167  0.00  0.00    +0.420 HD
ENDROOT
BRANCH   1   4
ATOM      4  C   LIG    1       -2.633  -2.524  -1.168  0.00  0.00    +0.240 C 
BRANCH   4   5
ATOM      5  C   LIG    1       -1.319  -1.741  -1.176  0.00  0.00    +0.040 C 
BRANCH   5   6
ATOM      6  C   LIG    1       -1.293  -0.775   0.010  0.00  0.00    +0.070 C 
BRANCH   6   8
ATOM      7  C   LIG    1       -0.016   1.306   0.009  0.00  0.00    +0.030 C 
ATOM      8  C   LIG    1        0.002  -0.004   0.002  0.00  0.00    -0.070 C 
ENDBRANCH   6   8
ENDBRANCH   5   6
ENDBRANCH   4   5
ENDBRANCH   1   4
BRANCH   1   9
ATOM      9  C   LIG    1       -3.920  -4.202  -2.299  0.00  0.00    +0.060 C 
BRANCH   9  10
ATOM     10  C   LIG    1       -5.095  -3.228  -2.409  0.00  0.00    +0.060 C 
ATOM     11  C   LIG    1       -4.981  -2.436  -3.713  0.00  0.00    +0.030 C 
ENDBRANCH   9  10
BRANCH   9  12
ATOM     12  C   LIG    1       -4.034  -4.994  -0.995  0.00  0.00    +0.060 C 
ATOM     13  C   LIG    1       -2.796  -5.878  -0.825  0.00  0.00    +0.040 C 
ENDBRANCH   9  12
BRANCH   9  14
ATOM     14  C   LIG    1       -3.946  -5.168  -3.486  0.00  0.00    +0.040 C 
ATOM     15  C   LIG    1       -5.261  -5.951  -3.478  0.00  0.00    +0.060 C 
ENDBRANCH   9  14
ENDBRANCH   1   9
TORSDOF 8
ENDMDL
MODEL       47
REMARK  Name = ZINC000157470730
REMARK                            x       y       z     vdW  Elec       q    Type
REMARK                         _______ _______ _______ _____ _____    ______ ____
ROOT
ATOM      1  N   LIG    1       -1.322  -0.872  -2.415  0.00  0.00    -0.510 N 
ATOM      2  H   LIG    1       -1.952  -0.181  -2.795  0.00  0.00    +0.420 HD
ATOM      3  H   LIG    1       -1.701  -1.235  -1.553  0.00  0.00    +0.420 HD
ENDROOT
BRANCH   1   4
ATOM      4  C   LIG    1       -1.161  -1.969  -3.379  0.00  0.00    +0.160 C 
ATOM      5  C   LIG    1       -2.490  -2.710  -3.535  0.00  0.00    +0.040 C 
ATOM      6  C   LIG    1       -2.322  -3.852  -4.539  0.00  0.00    +0.050 C 
ATOM      7  C   LIG    1       -1.893  -3.283  -5.893  0.00  0.00    +0.030 C 
ATOM      8  C   LIG    1       -0.564  -2.541  -5.737  0.00  0.00    -0.050 C 
ATOM      9  C   LIG    1       -0.135  -1.972  -7.090  0.00  0.00    +0.040 C 
ATOM     10  C   LIG    1        0.505  -3.512  -5.230  0.00  0.00    +0.030 C 
ATOM     11  C   LIG    1       -0.732  -1.399  -4.733  0.00  0.00    +0.050 C 
ENDBRANCH   1   4
BRANCH   1  12
ATOM     12  C   LIG    1       -0.016  -0.253  -2.154  0.00  0.00    +0.170 C 
ATOM     13  C   LIG    1        0.893  -1.260  -1.445  0.00  0.00    +0.090 C 
BRANCH  12  14
ATOM     14  C   LIG    1       -0.203   0.978  -1.265  0.00  0.00    +0.100 C 
BRANCH  14  16
ATOM     15  C   LIG    1       -2.093   2.509  -1.487  0.00  0.00    +0.060 C 
ATOM     16  C   LIG    1       -0.996   2.020  -2.011  0.00  0.00    -0.090 C 
ENDBRANCH  14  16
ENDBRANCH  12  14
ENDBRANCH   1  12
TORSDOF 4
ENDMDL
MODEL       48
REMARK  Name = ZINC000157470419
REMARK                            x       y       z     vdW  Elec       q    Type
REMARK                         _______ _______ _______ _____ _____    ______ ____
ROOT
ATOM      1  N   LIG    1       -1.330  -0.975  -2.430  0.00  0.00    -0.510 N 
ATOM      2  H   LIG    1       -0.545  -0.341  -2.445  0.00  0.00    +0.420 HD
ATOM      3  H   LIG    1       -2.189  -0.449  -2.495  0.00  0.00    +0.420 HD
ENDROOT
BRANCH   1   4
ATOM      4  C   LIG    1       -1.234  -1.899  -3.569  0.00  0.00    +0.160 C 
ATOM      5  C   LIG    1        0.122  -2.606  -3.539  0.00  0.00    +0.040 C 
ATOM      6  C   LIG    1        0.222  -3.568  -4.724  0.00  0.00    +0.040 C 
ATOM      7  C   LIG    1        0.084  -2.784  -6.030  0.00  0.00    +0.030 C 
ATOM      8  C   LIG    1       -1.272  -2.076  -6.061  0.00  0.00    -0.050 C 
ATOM      9  C   LIG    1       -2.391  -3.115  -5.970  0.00  0.00    +0.030 C 
ATOM     10  C   LIG    1       -1.409  -1.292  -7.367  0.00  0.00    +0.040 C 
ATOM     11  C   LIG    1       -1.372  -1.114  -4.875  0.00  0.00    +0.050 C 
ENDBRANCH   1   4
BRANCH   1  12
ATOM     12  C   LIG    1       -1.319  -1.741  -1.176  0.00  0.00    +0.170 C 
ATOM     13  C   LIG    1       -2.575  -2.611  -1.099  0.00  0.00    +0.090 C 
BRANCH  12  14
ATOM     14  C   LIG    1       -1.293  -0.775   0.010  0.00  0.00    +0.100 C 
BRANCH  14  16
ATOM     15  C   LIG    1       -0.016   1.306   0.009  0.00  0.00    +0.060 C 
ATOM     16  C   LIG    1        0.002  -0.004   0.002  0.00  0.00    -0.090 C 
ENDBRANCH  14  16
ENDBRANCH  12  14
ENDBRANCH   1  12
TORSDOF 4
ENDMDL
MODEL       49
REMARK  Name = ZINC000157470593
REMARK                            x       y       z     vdW  Elec       q    Type
REMARK                         _______ _______ _______ _____ _____    ______ ____
ROOT
ATOM      1  N   LIG    1       -0.264  -2.750  -1.010  0.00  0.00    -0.510 N 
ATOM      2  H   LIG    1       -0.466  -3.317  -0.200  0.00  0.00    +0.420 HD
ATOM      3  H   LIG    1        0.625  -2.290  -0.885  0.00  0.00    +0.420 HD
ENDROOT
BRANCH   1   4
ATOM      4  C   LIG    1       -0.210  -3.603  -2.204  0.00  0.00    +0.160 C 
ATOM      5  C   LIG    1        0.218  -2.766  -3.411  0.00  0.00    +0.040 C 
ATOM      6  C   LIG    1        0.274  -3.655  -4.655  0.00  0.00    +0.040 C 
ATOM      7  C   LIG    1        1.285  -4.782  -4.431  0.00  0.00    +0.030 C 
ATOM      8  C   LIG    1        0.856  -5.619  -3.225  0.00  0.00    -0.050 C 
ATOM      9  C   LIG    1        1.867  -6.746  -3.001  0.00  0.00    +0.040 C 
ATOM     10  C   LIG    1       -0.527  -6.219  -3.485  0.00  0.00    +0.030 C 
ATOM     11  C   LIG    1        0.800  -4.730  -1.981  0.00  0.00    +0.050 C 
ENDBRANCH   1   4
BRANCH   1  12
ATOM     12  C   LIG    1       -1.319  -1.741  -1.176  0.00  0.00    +0.170 C 
ATOM     13  C   LIG    1       -2.682  -2.433  -1.241  0.00  0.00    +0.090 C 
BRANCH  12  14
ATOM     14  C   LIG    1       -1.293  -0.775   0.010  0.00  0.00    +0.090 C 
BRANCH  14  16
ATOM     15  C   LIG    1       -0.016   1.306   0.009  0.00  0.00    +0.090 C 
ATOM     16  C   LIG    1        0.002  -0.004   0.002  0.00  0.00    -0.110 C 
ENDBRANCH  14  16
ENDBRANCH  12  14
ENDBRANCH   1  12
TORSDOF 4
ENDMDL
MODEL       50
REMARK  Name = ZINC000196750788
REMARK                            x       y       z     vdW  Elec       q    Type
REMARK                         _______ _______ _______ _____ _____    ______ ____
ROOT
ATOM      1  C   LIG    1        2.151  -4.593   3.731  0.00  0.00    +0.250 C 
ENDROOT
BRANCH   1   2
ATOM      2  N   LIG    1        2.174  -6.062   3.757  0.00  0.00    -0.390 N 
ATOM      3  H   LIG    1        1.240  -6.415   3.614  0.00  0.00    +0.420 HD
BRANCH   2   4
ATOM      4  C   LIG    1        2.677  -6.520   5.059  0.00  0.00    +0.240 C 
ATOM      5  C   LIG    1        1.685  -6.127   6.156  0.00  0.00    +0.080 C 
ENDBRANCH   2   4
BRANCH   2   6
ATOM      6  C   LIG    1        3.054  -6.557   2.690  0.00  0.00    +0.240 C 
BRANCH   6   7
ATOM      7  C   LIG    1        2.982  -8.084   2.637  0.00  0.00    +0.030 C 
ATOM      8  C   LIG    1        3.898  -8.600   1.526  0.00  0.00    +0.060 C 
ENDBRANCH   6   7
ENDBRANCH   2   6
ENDBRANCH   1   2
BRANCH   1   9
ATOM      9  C   LIG    1        1.494  -4.117   2.434  0.00  0.00    +0.030 C 
BRANCH   9  10
ATOM     10  C   LIG    1        1.346  -2.594   2.466  0.00  0.00    +0.020 C 
BRANCH  10  11
ATOM     11  C   LIG    1        0.689  -2.118   1.169  0.00  0.00    +0.020 C 
BRANCH  11  12
ATOM     12  C   LIG    1        0.541  -0.595   1.202  0.00  0.00    +0.000 C 
BRANCH  12  14
ATOM     13  C   LIG    1       -0.265   1.404  -0.062  0.00  0.00    +0.000 C 
ATOM     14  C   LIG    1       -0.116  -0.118  -0.095  0.00  0.00    -0.010 C 
ENDBRANCH  12  14
ENDBRANCH  11  12
ENDBRANCH  10  11
ENDBRANCH   9  10
ENDBRANCH   1   9
TORSDOF 9
ENDMDL
MODEL       51
REMARK  Name = ZINC000083948976
REMARK                            x       y       z     vdW  Elec       q    Type
REMARK                         _______ _______ _______ _____ _____    ______ ____
ROOT
ATOM      1  N   LIG    1        2.755  -3.402   2.274  0.00  0.00    -0.510 N 
ATOM      2  H   LIG    1        1.998  -4.065   2.195  0.00  0.00    +0.420 HD
ATOM      3  H   LIG    1        2.666  -2.892   3.140  0.00  0.00    +0.430 HD
ENDROOT
BRANCH   1   4
ATOM      4  C   LIG    1        4.037  -4.120   2.258  0.00  0.00    +0.170 C 
ATOM      5  C   LIG    1        4.120  -4.961   0.970  0.00  0.00    +0.030 C 
ATOM      6  C   LIG    1        5.173  -6.033   1.049  0.00  0.00    +0.040 C 
ATOM      7  C   LIG    1        4.505  -7.341   1.519  0.00  0.00    +0.000 C 
ATOM      8  C   LIG    1        4.299  -7.373   2.959  0.00  0.00    +0.010 C 
ATOM      9  C   LIG    1        3.358  -6.251   3.444  0.00  0.00    +0.030 C 
ATOM     10  C   LIG    1        4.144  -4.974   3.535  0.00  0.00    +0.010 C 
ATOM     11  C   LIG    1        3.624  -4.156   4.718  0.00  0.00    +0.030 C 
ENDBRANCH   1   4
BRANCH   1  12
ATOM     12  C   LIG    1        2.705  -2.464   1.145  0.00  0.00    +0.250 C 
BRANCH  12  13
ATOM     13  C   LIG    1        1.370  -1.717   1.161  0.00  0.00    +0.040 C 
BRANCH  13  14
ATOM     14  C   LIG    1        1.317  -0.740  -0.015  0.00  0.00    +0.070 C 
BRANCH  14  16
ATOM     15  C   LIG    1       -0.016   1.306   0.009  0.00  0.00    +0.030 C 
ATOM     16  C   LIG    1        0.002  -0.004   0.002  0.00  0.00    -0.070 C 
ENDBRANCH  14  16
ENDBRANCH  13  14
ENDBRANCH  12  13
ENDBRANCH   1  12
TORSDOF 5
ENDMDL
MODEL       52
REMARK  Name = ZINC000083948974
REMARK                            x       y       z     vdW  Elec       q    Type
REMARK                         _______ _______ _______ _____ _____    ______ ____
ROOT
ATOM      1  N   LIG    1        2.755  -3.402   2.274  0.00  0.00    -0.510 N 
ATOM      2  H   LIG    1        1.998  -4.065   2.195  0.00  0.00    +0.430 HD
ATOM      3  H   LIG    1        2.666  -2.892   3.140  0.00  0.00    +0.430 HD
ENDROOT
BRANCH   1   4
ATOM      4  C   LIG    1        4.037  -4.120   2.258  0.00  0.00    +0.170 C 
ATOM      5  C   LIG    1        5.161  -3.151   2.508  0.00  0.00    +0.020 C 
ATOM      6  C   LIG    1        6.444  -3.526   1.742  0.00  0.00    +0.030 C 
ATOM      7  C   LIG    1        6.736  -5.039   1.770  0.00  0.00    +0.000 C 
ATOM      8  C   LIG    1        6.485  -5.648   3.123  0.00  0.00    +0.020 C 
ATOM      9  C   LIG    1        5.051  -6.215   3.146  0.00  0.00    +0.030 C 
ATOM     10  C   LIG    1        4.048  -5.187   3.371  0.00  0.00    +0.000 C 
ATOM     11  C   LIG    1        2.669  -5.846   3.443  0.00  0.00    +0.030 C 
ENDBRANCH   1   4
BRANCH   1  12
ATOM     12  C   LIG    1        2.705  -2.464   1.145  0.00  0.00    +0.240 C 
BRANCH  12  13
ATOM     13  C   LIG    1        1.370  -1.717   1.161  0.00  0.00    +0.040 C 
BRANCH  13  14
ATOM     14  C   LIG    1        1.317  -0.740  -0.015  0.00  0.00    +0.070 C 
BRANCH  14  16
ATOM     15  C   LIG    1       -0.016   1.306   0.009  0.00  0.00    +0.030 C 
ATOM     16  C   LIG    1        0.002  -0.004   0.002  0.00  0.00    -0.070 C 
ENDBRANCH  14  16
ENDBRANCH  13  14
ENDBRANCH  12  13
ENDBRANCH   1  12
TORSDOF 5
ENDMDL
MODEL       53
REMARK  Name = ZINC000083948975
REMARK                            x       y       z     vdW  Elec       q    Type
REMARK                         _______ _______ _______ _____ _____    ______ ____
ROOT
ATOM      1  N   LIG    1        2.831  -3.361   2.252  0.00  0.00    -0.510 N 
ATOM      2  H   LIG    1        2.012  -3.937   2.127  0.00  0.00    +0.430 HD
ATOM      3  H   LIG    1        2.785  -2.901   3.149  0.00  0.00    +0.430 HD
ENDROOT
BRANCH   1   4
ATOM      4  C   LIG    1        4.034  -4.202   2.194  0.00  0.00    +0.180 C 
ATOM      5  C   LIG    1        4.051  -4.957   0.849  0.00  0.00    +0.050 C 
ATOM      6  C   LIG    1        5.463  -5.393   0.563  0.00  0.00    +0.030 C 
ATOM      7  C   LIG    1        5.745  -6.829   1.045  0.00  0.00    +0.010 C 
ATOM      8  C   LIG    1        5.132  -7.126   2.427  0.00  0.00    +0.000 C 
ATOM      9  C   LIG    1        5.301  -5.983   3.391  0.00  0.00    +0.070 C 
ATOM     10  C   LIG    1        4.034  -5.106   3.335  0.00  0.00    -0.040 C 
ATOM     11  C   LIG    1        3.948  -4.277   4.618  0.00  0.00    +0.030 C 
ENDBRANCH   1   4
BRANCH   1  12
ATOM     12  C   LIG    1        2.888  -2.351   1.187  0.00  0.00    +0.250 C 
BRANCH  12  13
ATOM     13  C   LIG    1        1.708  -1.388   1.334  0.00  0.00    +0.040 C 
BRANCH  13  14
ATOM     14  C   LIG    1        1.767  -0.336   0.225  0.00  0.00    +0.070 C 
BRANCH  14  16
ATOM     15  C   LIG    1        0.819   1.902   0.457  0.00  0.00    +0.030 C 
ATOM     16  C   LIG    1        0.605   0.612   0.370  0.00  0.00    -0.070 C 
ENDBRANCH  14  16
ENDBRANCH  13  14
ENDBRANCH  12  13
ENDBRANCH   1  12
TORSDOF 5
ENDMDL
MODEL       54
REMARK  Name = ZINC000083948973
REMARK                            x       y       z     vdW  Elec       q    Type
REMARK                         _______ _______ _______ _____ _____    ______ ____
ROOT
ATOM      1  N   LIG    1        2.755  -3.402   2.274  0.00  0.00    -0.510 N 
ATOM      2  H   LIG    1        2.498  -3.053   3.184  0.00  0.00    +0.420 HD
ATOM      3  H   LIG    1        2.870  -2.628   1.637  0.00  0.00    +0.430 HD
ENDROOT
BRANCH   1   4
ATOM      4  C   LIG    1        4.018  -4.146   2.374  0.00  0.00    +0.170 C 
ATOM      5  C   LIG    1        5.126  -3.182   2.701  0.00  0.00    +0.040 C 
ATOM      6  C   LIG    1        6.410  -3.651   1.987  0.00  0.00    +0.040 C 
ATOM      7  C   LIG    1        7.078  -4.731   2.699  0.00  0.00    +0.010 C 
ATOM      8  C   LIG    1        6.200  -5.995   2.808  0.00  0.00    +0.010 C 
ATOM      9  C   LIG    1        5.217  -5.799   3.929  0.00  0.00    +0.050 C 
ATOM     10  C   LIG    1        3.865  -5.248   3.440  0.00  0.00    -0.010 C 
ATOM     11  C   LIG    1        3.103  -4.675   4.636  0.00  0.00    +0.040 C 
ENDBRANCH   1   4
BRANCH   1  12
ATOM     12  C   LIG    1        1.700  -4.294   1.775  0.00  0.00    +0.240 C 
BRANCH  12  13
ATOM     13  C   LIG    1        0.418  -3.491   1.549  0.00  0.00    +0.040 C 
BRANCH  13  14
ATOM     14  C   LIG    1       -0.681  -4.420   1.029  0.00  0.00    +0.070 C 
BRANCH  14  16
ATOM     15  C   LIG    1       -2.532  -3.649  -0.365  0.00  0.00    +0.030 C 
ATOM     16  C   LIG    1       -1.944  -3.628   0.806  0.00  0.00    -0.070 C 
ENDBRANCH  14  16
ENDBRANCH  13  14
ENDBRANCH  12  13
ENDBRANCH   1  12
TORSDOF 5
ENDMDL
MODEL       55
REMARK  Name = ZINC000196726072
REMARK                            x       y       z     vdW  Elec       q    Type
REMARK                         _______ _______ _______ _____ _____    ______ ____
ROOT
ATOM      1  C   LIG    1        2.264  -4.584   3.704  0.00  0.00    +0.250 C 
ENDROOT
BRANCH   1   2
ATOM      2  N   LIG    1        2.284  -6.053   3.696  0.00  0.00    -0.390 N 
ATOM      3  C   LIG    1        0.912  -6.562   3.827  0.00  0.00    +0.300 C 
ATOM      4  H   LIG    1        2.682  -6.379   2.828  0.00  0.00    +0.420 HD
BRANCH   2   5
ATOM      5  C   LIG    1        3.095  -6.538   4.820  0.00  0.00    +0.250 C 
BRANCH   5   6
ATOM      6  C   LIG    1        3.219  -8.061   4.740  0.00  0.00    +0.030 C 
BRANCH   6   7
ATOM      7  C   LIG    1        4.065  -8.566   5.911  0.00  0.00    +0.020 C 
ATOM      8  C   LIG    1        4.189 -10.089   5.831  0.00  0.00    +0.030 C 
ENDBRANCH   6   7
ENDBRANCH   5   6
ENDBRANCH   2   5
ENDBRANCH   1   2
BRANCH   1   9
ATOM      9  C   LIG    1        1.524  -4.077   2.464  0.00  0.00    +0.030 C 
BRANCH   9  10
ATOM     10  C   LIG    1        1.503  -2.548   2.473  0.00  0.00    +0.020 C 
BRANCH  10  11
ATOM     11  C   LIG    1        0.763  -2.041   1.233  0.00  0.00    +0.020 C 
BRANCH  11  12
ATOM     12  C   LIG    1        0.742  -0.511   1.242  0.00  0.00    +0.000 C 
BRANCH  12  14
ATOM     13  C   LIG    1       -0.019   1.526   0.010  0.00  0.00    +0.000 C 
ATOM     14  C   LIG    1        0.002  -0.004   0.002  0.00  0.00    -0.010 C 
ENDBRANCH  12  14
ENDBRANCH  11  12
ENDBRANCH  10  11
ENDBRANCH   9  10
ENDBRANCH   1   9
TORSDOF 9
ENDMDL
MODEL       56
REMARK  Name = ZINC000085058979
REMARK                            x       y       z     vdW  Elec       q    Type
REMARK                         _______ _______ _______ _____ _____    ______ ____
ROOT
ATOM      1  N   LIG    1        1.699  -1.091   1.360  0.00  0.00    -0.510 N 
ATOM      2  H   LIG    1        0.988  -1.682   1.765  0.00  0.00    +0.420 HD
ATOM      3  H   LIG    1        1.791  -0.250   1.909  0.00  0.00    +0.430 HD
ENDROOT
BRANCH   1   4
ATOM      4  C   LIG    1        2.981  -1.809   1.344  0.00  0.00    +0.170 C 
ATOM      5  C   LIG    1        2.801  -3.131   0.574  0.00  0.00    +0.030 C 
ATOM      6  C   LIG    1        3.906  -4.114   0.852  0.00  0.00    +0.040 C 
ATOM      7  C   LIG    1        3.455  -5.049   1.993  0.00  0.00    +0.000 C 
ATOM      8  C   LIG    1        3.608  -4.437   3.304  0.00  0.00    +0.020 C 
ATOM      9  C   LIG    1        2.744  -3.169   3.466  0.00  0.00    +0.030 C 
ATOM     10  C   LIG    1        3.448  -2.024   2.796  0.00  0.00    +0.010 C 
ATOM     11  C   LIG    1        3.181  -0.745   3.592  0.00  0.00    +0.030 C 
ENDBRANCH   1   4
BRANCH   1  12
ATOM     12  C   LIG    1        1.317  -0.740  -0.015  0.00  0.00    +0.300 C 
BRANCH  12  14
ATOM     13  C   LIG    1       -0.016   1.306   0.009  0.00  0.00    +0.120 C 
ATOM     14  C   LIG    1        0.002  -0.004   0.002  0.00  0.00    -0.200 C 
BRANCH  14  15
ATOM     15  C   LIG    1       -1.293  -0.775   0.010  0.00  0.00    +0.060 C 
ATOM     16  C   LIG    1       -1.680  -1.137  -1.425  0.00  0.00    +0.040 C 
ENDBRANCH  14  15
ENDBRANCH  12  14
ENDBRANCH   1  12
TORSDOF 4
ENDMDL
MODEL       57
REMARK  Name = ZINC000085058375
REMARK                            x       y       z     vdW  Elec       q    Type
REMARK                         _______ _______ _______ _____ _____    ______ ____
ROOT
ATOM      1  N   LIG    1        1.699  -1.091   1.360  0.00  0.00    -0.510 N 
ATOM      2  H   LIG    1        0.988  -1.682   1.765  0.00  0.00    +0.430 HD
ATOM      3  H   LIG    1        1.791  -0.250   1.909  0.00  0.00    +0.420 HD
ENDROOT
BRANCH   1   4
ATOM      4  C   LIG    1        2.981  -1.809   1.344  0.00  0.00    +0.170 C 
ATOM      5  C   LIG    1        4.083  -0.872   0.845  0.00  0.00    +0.080 C 
BRANCH   4   6
ATOM      6  C   LIG    1        3.317  -2.284   2.759  0.00  0.00    -0.010 C 
ATOM      7  C   LIG    1        2.215  -3.220   3.257  0.00  0.00    +0.010 C 
ATOM      8  C   LIG    1        2.551  -3.696   4.672  0.00  0.00    +0.020 C 
ATOM      9  C   LIG    1        3.887  -4.443   4.656  0.00  0.00    +0.010 C 
ATOM     10  C   LIG    1        4.989  -3.506   4.157  0.00  0.00    +0.020 C 
ATOM     11  C   LIG    1        4.652  -3.031   2.742  0.00  0.00    +0.040 C 
ENDBRANCH   4   6
ENDBRANCH   1   4
BRANCH   1  12
ATOM     12  C   LIG    1        1.317  -0.740  -0.015  0.00  0.00    +0.310 C 
BRANCH  12  14
ATOM     13  C   LIG    1       -0.016   1.306   0.009  0.00  0.00    +0.120 C 
ATOM     14  C   LIG    1        0.002  -0.004   0.002  0.00  0.00    -0.200 C 
BRANCH  14  15
ATOM     15  C   LIG    1       -1.293  -0.775   0.010  0.00  0.00    +0.060 C 
ATOM     16  C   LIG    1       -1.680  -1.137  -1.425  0.00  0.00    +0.040 C 
ENDBRANCH  14  15
ENDBRANCH  12  14
ENDBRANCH   1  12
TORSDOF 5
ENDMDL
MODEL       58
REMARK  Name = ZINC000085058887
REMARK                            x       y       z     vdW  Elec       q    Type
REMARK                         _______ _______ _______ _____ _____    ______ ____
ROOT
ATOM      1  N   LIG    1        1.699  -1.091   1.360  0.00  0.00    -0.500 N 
ATOM      2  H   LIG    1        0.988  -1.682   1.765  0.00  0.00    +0.420 HD
ATOM      3  H   LIG    1        1.791  -0.250   1.909  0.00  0.00    +0.420 HD
ENDROOT
BRANCH   1   4
ATOM      4  C   LIG    1        1.317  -0.740  -0.015  0.00  0.00    +0.310 C 
BRANCH   4   6
ATOM      5  C   LIG    1       -0.016   1.306   0.009  0.00  0.00    +0.120 C 
ATOM      6  C   LIG    1        0.002  -0.004   0.002  0.00  0.00    -0.190 C 
BRANCH   6   7
ATOM      7  C   LIG    1       -1.293  -0.775   0.010  0.00  0.00    +0.070 C 
ATOM      8  C   LIG    1       -1.680  -1.137  -1.425  0.00  0.00    +0.040 C 
ENDBRANCH   6   7
ENDBRANCH   4   6
ENDBRANCH   1   4
BRANCH   1   9
ATOM      9  C   LIG    1        2.981  -1.809   1.344  0.00  0.00    +0.060 C 
BRANCH   9  10
ATOM     10  C   LIG    1        3.378  -2.175   2.775  0.00  0.00    +0.040 C 
ATOM     11  C   LIG    1        4.713  -2.922   2.758  0.00  0.00    +0.060 C 
ENDBRANCH   9  10
BRANCH   9  12
ATOM     12  C   LIG    1        4.058  -0.913   0.729  0.00  0.00    +0.060 C 
ATOM     13  C   LIG    1        4.198   0.362   1.562  0.00  0.00    +0.030 C 
ENDBRANCH   9  12
BRANCH   9  14
ATOM     14  C   LIG    1        2.841  -3.084   0.511  0.00  0.00    +0.060 C 
ATOM     15  C   LIG    1        1.680  -3.922   1.051  0.00  0.00    +0.040 C 
ENDBRANCH   9  14
ENDBRANCH   1   9
TORSDOF 7
ENDMDL
MODEL       59
REMARK  Name = ZINC000085057841
REMARK                            x       y       z     vdW  Elec       q    Type
REMARK                         _______ _______ _______ _____ _____    ______ ____
ROOT
ATOM      1  N   LIG    1        1.699  -1.091   1.360  0.00  0.00    -0.510 N 
ATOM      2  H   LIG    1        0.988  -1.682   1.765  0.00  0.00    +0.420 HD
ATOM      3  H   LIG    1        1.791  -0.250   1.909  0.00  0.00    +0.420 HD
ENDROOT
BRANCH   1   4
ATOM      4  C   LIG    1        2.981  -1.809   1.344  0.00  0.00    +0.170 C 
ATOM      5  C   LIG    1        4.083  -0.872   0.845  0.00  0.00    +0.040 C 
ATOM      6  C   LIG    1        5.418  -1.619   0.828  0.00  0.00    +0.030 C 
ATOM      7  C   LIG    1        5.754  -2.094   2.243  0.00  0.00    +0.020 C 
ATOM      8  C   LIG    1        4.652  -3.031   2.742  0.00  0.00    +0.060 C 
ATOM      9  C   LIG    1        3.317  -2.284   2.759  0.00  0.00    -0.010 C 
BRANCH   9  10
ATOM     10  C   LIG    1        2.215  -3.220   3.257  0.00  0.00    +0.000 C 
ATOM     11  C   LIG    1        2.487  -3.597   4.715  0.00  0.00    +0.040 C 
ENDBRANCH   9  10
ENDBRANCH   1   4
BRANCH   1  12
ATOM     12  C   LIG    1        1.317  -0.740  -0.015  0.00  0.00    +0.310 C 
BRANCH  12  14
ATOM     13  C   LIG    1       -0.016   1.306   0.009  0.00  0.00    +0.120 C 
ATOM     14  C   LIG    1        0.002  -0.004   0.002  0.00  0.00    -0.200 C 
BRANCH  14  15
ATOM     15  C   LIG    1       -1.293  -0.775   0.010  0.00  0.00    +0.060 C 
ATOM     16  C   LIG    1       -1.680  -1.137  -1.425  0.00  0.00    +0.040 C 
ENDBRANCH  14  15
ENDBRANCH  12  14
ENDBRANCH   1  12
TORSDOF 5
ENDMDL
MODEL       60
REMARK  Name = ZINC000085058376
REMARK                            x       y       z     vdW  Elec       q    Type
REMARK                         _______ _______ _______ _____ _____    ______ ____
ROOT
ATOM      1  N   LIG    1        1.699  -1.091   1.360  0.00  0.00    -0.510 N 
ATOM      2  H   LIG    1        0.988  -1.682   1.765  0.00  0.00    +0.420 HD
ATOM      3  H   LIG    1        1.791  -0.250   1.909  0.00  0.00    +0.430 HD
ENDROOT
BRANCH   1   4
ATOM      4  C   LIG    1        2.981  -1.809   1.344  0.00  0.00    +0.170 C 
ATOM      5  C   LIG    1        2.809  -3.144   0.617  0.00  0.00    +0.090 C 
BRANCH   4   6
ATOM      6  C   LIG    1        3.440  -2.065   2.780  0.00  0.00    -0.020 C 
ATOM      7  C   LIG    1        2.455  -3.012   3.469  0.00  0.00    +0.010 C 
ATOM      8  C   LIG    1        2.913  -3.269   4.906  0.00  0.00    +0.020 C 
ATOM      9  C   LIG    1        4.306  -3.904   4.891  0.00  0.00    +0.010 C 
ATOM     10  C   LIG    1        5.290  -2.957   4.202  0.00  0.00    +0.020 C 
ATOM     11  C   LIG    1        4.832  -2.700   2.766  0.00  0.00    +0.040 C 
ENDBRANCH   4   6
ENDBRANCH   1   4
BRANCH   1  12
ATOM     12  C   LIG    1        1.317  -0.740  -0.015  0.00  0.00    +0.300 C 
BRANCH  12  14
ATOM     13  C   LIG    1       -0.016   1.306   0.009  0.00  0.00    +0.120 C 
ATOM     14  C   LIG    1        0.002  -0.004   0.002  0.00  0.00    -0.200 C 
BRANCH  14  15
ATOM     15  C   LIG    1       -1.293  -0.775   0.010  0.00  0.00    +0.060 C 
ATOM     16  C   LIG    1       -1.680  -1.137  -1.425  0.00  0.00    +0.040 C 
ENDBRANCH  14  15
ENDBRANCH  12  14
ENDBRANCH   1  12
TORSDOF 5
ENDMDL
MODEL       61
REMARK  Name = ZINC000085057839
REMARK                            x       y       z     vdW  Elec       q    Type
REMARK                         _______ _______ _______ _____ _____    ______ ____
ROOT
ATOM      1  N   LIG    1        1.699  -1.091   1.360  0.00  0.00    -0.510 N 
ATOM      2  H   LIG    1        0.988  -1.682   1.765  0.00  0.00    +0.420 HD
ATOM      3  H   LIG    1        1.791  -0.250   1.909  0.00  0.00    +0.420 HD
ENDROOT
BRANCH   1   4
ATOM      4  C   LIG    1        2.981  -1.809   1.344  0.00  0.00    +0.170 C 
ATOM      5  C   LIG    1        4.083  -0.872   0.845  0.00  0.00    +0.060 C 
ATOM      6  C   LIG    1        4.186   0.336   1.778  0.00  0.00    +0.010 C 
ATOM      7  C   LIG    1        4.522  -0.139   3.192  0.00  0.00    +0.030 C 
ATOM      8  C   LIG    1        3.420  -1.075   3.691  0.00  0.00    +0.020 C 
ATOM      9  C   LIG    1        3.317  -2.284   2.759  0.00  0.00    +0.010 C 
BRANCH   9  10
ATOM     10  C   LIG    1        2.215  -3.220   3.257  0.00  0.00    -0.000 C 
ATOM     11  C   LIG    1        2.611  -3.793   4.620  0.00  0.00    +0.030 C 
ENDBRANCH   9  10
ENDBRANCH   1   4
BRANCH   1  12
ATOM     12  C   LIG    1        1.317  -0.740  -0.015  0.00  0.00    +0.310 C 
BRANCH  12  14
ATOM     13  C   LIG    1       -0.016   1.306   0.009  0.00  0.00    +0.120 C 
ATOM     14  C   LIG    1        0.002  -0.004   0.002  0.00  0.00    -0.200 C 
BRANCH  14  15
ATOM     15  C   LIG    1       -1.293  -0.775   0.010  0.00  0.00    +0.060 C 
ATOM     16  C   LIG    1       -1.680  -1.137  -1.425  0.00  0.00    +0.040 C 
ENDBRANCH  14  15
ENDBRANCH  12  14
ENDBRANCH   1  12
TORSDOF 5
ENDMDL
MODEL       62
REMARK  Name = ZINC000085058113
REMARK                            x       y       z     vdW  Elec       q    Type
REMARK                         _______ _______ _______ _____ _____    ______ ____
ROOT
ATOM      1  N   LIG    1        2.434  -1.241   2.003  0.00  0.00    -0.510 N 
ATOM      2  H   LIG    1        1.780  -1.404   2.755  0.00  0.00    +0.420 HD
ATOM      3  H   LIG    1        2.982  -0.418   2.207  0.00  0.00    +0.430 HD
ENDROOT
BRANCH   1   4
ATOM      4  C   LIG    1        3.325  -2.401   1.869  0.00  0.00    +0.060 C 
ATOM      5  C   LIG    1        4.423  -2.087   0.851  0.00  0.00    +0.080 C 
ATOM      6  C   LIG    1        2.519  -3.611   1.393  0.00  0.00    +0.090 C 
BRANCH   4   7
ATOM      7  C   LIG    1        3.963  -2.714   3.225  0.00  0.00    +0.070 C 
BRANCH   7   8
ATOM      8  C   LIG    1        4.452  -1.416   3.870  0.00  0.00    -0.090 C 
ATOM      9  C   LIG    1        5.142  -0.550   2.814  0.00  0.00    +0.040 C 
ATOM     10  C   LIG    1        5.444  -1.745   4.988  0.00  0.00    +0.070 C 
ATOM     11  C   LIG    1        3.260  -0.656   4.454  0.00  0.00    +0.030 C 
ENDBRANCH   7   8
ENDBRANCH   4   7
ENDBRANCH   1   4
BRANCH   1  12
ATOM     12  C   LIG    1        1.698  -1.042   0.748  0.00  0.00    +0.290 C 
BRANCH  12  14
ATOM     13  C   LIG    1        1.179   1.329   0.477  0.00  0.00    +0.120 C 
ATOM     14  C   LIG    1        0.784   0.149   0.886  0.00  0.00    -0.190 C 
BRANCH  14  15
ATOM     15  C   LIG    1       -0.585  -0.019   1.493  0.00  0.00    +0.060 C 
ATOM     16  C   LIG    1       -1.571  -0.467   0.413  0.00  0.00    +0.040 C 
ENDBRANCH  14  15
ENDBRANCH  12  14
ENDBRANCH   1  12
TORSDOF 6
ENDMDL
MODEL       63
REMARK  Name = ZINC000085058986
REMARK                            x       y       z     vdW  Elec       q    Type
REMARK                         _______ _______ _______ _____ _____    ______ ____
ROOT
ATOM      1  N   LIG    1        1.764  -1.068   1.305  0.00  0.00    -0.510 N 
ATOM      2  H   LIG    1        0.977  -1.598   1.648  0.00  0.00    +0.420 HD
ATOM      3  H   LIG    1        1.909  -0.261   1.893  0.00  0.00    +0.420 HD
ENDROOT
BRANCH   1   4
ATOM      4  C   LIG    1        2.967  -1.911   1.325  0.00  0.00    +0.180 C 
ATOM      5  C   LIG    1        2.704  -3.177   0.485  0.00  0.00    +0.050 C 
ATOM      6  C   LIG    1        4.029  -3.766   0.081  0.00  0.00    +0.030 C 
ATOM      7  C   LIG    1        4.509  -4.859   1.054  0.00  0.00    +0.010 C 
ATOM      8  C   LIG    1        4.270  -4.491   2.531  0.00  0.00    +0.000 C 
ATOM      9  C   LIG    1        4.596  -3.051   2.826  0.00  0.00    +0.070 C 
ATOM     10  C   LIG    1        3.300  -2.223   2.707  0.00  0.00    -0.030 C 
ATOM     11  C   LIG    1        3.477  -0.913   3.478  0.00  0.00    +0.030 C 
ENDBRANCH   1   4
BRANCH   1  12
ATOM     12  C   LIG    1        1.496  -0.629  -0.071  0.00  0.00    +0.300 C 
BRANCH  12  14
ATOM     13  C   LIG    1        0.581   1.634  -0.041  0.00  0.00    +0.120 C 
ATOM     14  C   LIG    1        0.347   0.345  -0.073  0.00  0.00    -0.200 C 
BRANCH  14  15
ATOM     15  C   LIG    1       -1.071  -0.162  -0.113  0.00  0.00    +0.060 C 
ATOM     16  C   LIG    1       -1.480  -0.421  -1.564  0.00  0.00    +0.040 C 
ENDBRANCH  14  15
ENDBRANCH  12  14
ENDBRANCH   1  12
TORSDOF 4
ENDMDL
MODEL       64
REMARK  Name = ZINC000085057848
REMARK                            x       y       z     vdW  Elec       q    Type
REMARK                         _______ _______ _______ _____ _____    ______ ____
ROOT
ATOM      1  N   LIG    1        1.699  -1.091   1.360  0.00  0.00    -0.510 N 
ATOM      2  H   LIG    1        0.988  -1.682   1.765  0.00  0.00    +0.420 HD
ATOM      3  H   LIG    1        1.791  -0.250   1.909  0.00  0.00    +0.420 HD
ENDROOT
BRANCH   1   4
ATOM      4  C   LIG    1        2.981  -1.809   1.344  0.00  0.00    +0.170 C 
ATOM      5  C   LIG    1        2.809  -3.144   0.617  0.00  0.00    +0.060 C 
ATOM      6  C   LIG    1        1.761  -3.989   1.344  0.00  0.00    +0.010 C 
ATOM      7  C   LIG    1        2.220  -4.246   2.780  0.00  0.00    +0.030 C 
ATOM      8  C   LIG    1        2.392  -2.910   3.507  0.00  0.00    +0.020 C 
ATOM      9  C   LIG    1        3.440  -2.065   2.780  0.00  0.00    +0.010 C 
BRANCH   9  10
ATOM     10  C   LIG    1        3.611  -0.730   3.507  0.00  0.00    -0.000 C 
ATOM     11  C   LIG    1        4.189  -0.979   4.902  0.00  0.00    +0.030 C 
ENDBRANCH   9  10
ENDBRANCH   1   4
BRANCH   1  12
ATOM     12  C   LIG    1        1.317  -0.740  -0.015  0.00  0.00    +0.310 C 
BRANCH  12  14
ATOM     13  C   LIG    1       -0.016   1.306   0.009  0.00  0.00    +0.120 C 
ATOM     14  C   LIG    1        0.002  -0.004   0.002  0.00  0.00    -0.200 C 
BRANCH  14  15
ATOM     15  C   LIG    1       -1.293  -0.775   0.010  0.00  0.00    +0.070 C 
ATOM     16  C   LIG    1       -1.680  -1.137  -1.425  0.00  0.00    +0.040 C 
ENDBRANCH  14  15
ENDBRANCH  12  14
ENDBRANCH   1  12
TORSDOF 5
ENDMDL
MODEL       65
REMARK  Name = ZINC000085057844
REMARK                            x       y       z     vdW  Elec       q    Type
REMARK                         _______ _______ _______ _____ _____    ______ ____
ROOT
ATOM      1  N   LIG    1        1.699  -1.091   1.360  0.00  0.00    -0.510 N 
ATOM      2  H   LIG    1        0.988  -1.682   1.765  0.00  0.00    +0.420 HD
ATOM      3  H   LIG    1        1.791  -0.250   1.909  0.00  0.00    +0.420 HD
ENDROOT
BRANCH   1   4
ATOM      4  C   LIG    1        2.981  -1.809   1.344  0.00  0.00    +0.170 C 
ATOM      5  C   LIG    1        2.809  -3.144   0.617  0.00  0.00    +0.040 C 
ATOM      6  C   LIG    1        4.144  -3.891   0.600  0.00  0.00    +0.030 C 
ATOM      7  C   LIG    1        4.603  -4.148   2.037  0.00  0.00    +0.020 C 
ATOM      8  C   LIG    1        4.775  -2.812   2.764  0.00  0.00    +0.050 C 
ATOM      9  C   LIG    1        3.440  -2.065   2.780  0.00  0.00    -0.010 C 
BRANCH   9  10
ATOM     10  C   LIG    1        3.611  -0.730   3.507  0.00  0.00    +0.000 C 
ATOM     11  C   LIG    1        3.949  -0.989   4.977  0.00  0.00    +0.040 C 
ENDBRANCH   9  10
ENDBRANCH   1   4
BRANCH   1  12
ATOM     12  C   LIG    1        1.317  -0.740  -0.015  0.00  0.00    +0.300 C 
BRANCH  12  14
ATOM     13  C   LIG    1       -0.016   1.306   0.009  0.00  0.00    +0.120 C 
ATOM     14  C   LIG    1        0.002  -0.004   0.002  0.00  0.00    -0.200 C 
BRANCH  14  15
ATOM     15  C   LIG    1       -1.293  -0.775   0.010  0.00  0.00    +0.060 C 
ATOM     16  C   LIG    1       -1.680  -1.137  -1.425  0.00  0.00    +0.040 C 
ENDBRANCH  14  15
ENDBRANCH  12  14
ENDBRANCH   1  12
TORSDOF 5
ENDMDL
MODEL       66
REMARK  Name = ZINC000085058981
REMARK                            x       y       z     vdW  Elec       q    Type
REMARK                         _______ _______ _______ _____ _____    ______ ____
ROOT
ATOM      1  N   LIG    1        1.699  -1.091   1.360  0.00  0.00    -0.510 N 
ATOM      2  H   LIG    1        0.988  -1.682   1.765  0.00  0.00    +0.430 HD
ATOM      3  H   LIG    1        1.791  -0.250   1.909  0.00  0.00    +0.420 HD
ENDROOT
BRANCH   1   4
ATOM      4  C   LIG    1        2.981  -1.809   1.344  0.00  0.00    +0.170 C 
ATOM      5  C   LIG    1        4.069  -0.888   0.862  0.00  0.00    +0.020 C 
ATOM      6  C   LIG    1        5.149  -1.626   0.048  0.00  0.00    +0.030 C 
ATOM      7  C   LIG    1        5.533  -2.986   0.660  0.00  0.00    +0.000 C 
ATOM      8  C   LIG    1        5.656  -2.929   2.159  0.00  0.00    +0.030 C 
ATOM      9  C   LIG    1        4.309  -3.354   2.777  0.00  0.00    +0.030 C 
ATOM     10  C   LIG    1        3.328  -2.281   2.770  0.00  0.00    +0.000 C 
ATOM     11  C   LIG    1        2.052  -2.771   3.458  0.00  0.00    +0.030 C 
ENDBRANCH   1   4
BRANCH   1  12
ATOM     12  C   LIG    1        1.317  -0.740  -0.015  0.00  0.00    +0.310 C 
BRANCH  12  14
ATOM     13  C   LIG    1       -0.016   1.306   0.009  0.00  0.00    +0.120 C 
ATOM     14  C   LIG    1        0.002  -0.004   0.002  0.00  0.00    -0.200 C 
BRANCH  14  15
ATOM     15  C   LIG    1       -1.293  -0.775   0.010  0.00  0.00    +0.060 C 
ATOM     16  C   LIG    1       -1.680  -1.137  -1.425  0.00  0.00    +0.040 C 
ENDBRANCH  14  15
ENDBRANCH  12  14
ENDBRANCH   1  12
TORSDOF 4
ENDMDL
MODEL       67
REMARK  Name = ZINC000085058988
REMARK                            x       y       z     vdW  Elec       q    Type
REMARK                         _______ _______ _______ _____ _____    ______ ____
ROOT
ATOM      1  N   LIG    1        1.699  -1.091   1.360  0.00  0.00    -0.510 N 
ATOM      2  H   LIG    1        1.649  -0.365   2.058  0.00  0.00    +0.420 HD
ATOM      3  H   LIG    1        1.606  -0.682   0.442  0.00  0.00    +0.430 HD
ENDROOT
BRANCH   1   4
ATOM      4  C   LIG    1        2.992  -1.781   1.461  0.00  0.00    +0.170 C 
ATOM      5  C   LIG    1        4.084  -0.829   1.052  0.00  0.00    +0.040 C 
ATOM      6  C   LIG    1        5.183  -1.629   0.323  0.00  0.00    +0.040 C 
ATOM      7  C   LIG    1        6.070  -2.321   1.247  0.00  0.00    +0.010 C 
ATOM      8  C   LIG    1        5.325  -3.364   2.106  0.00  0.00    +0.010 C 
ATOM      9  C   LIG    1        4.633  -2.647   3.234  0.00  0.00    +0.050 C 
ATOM     10  C   LIG    1        3.171  -2.296   2.901  0.00  0.00    -0.010 C 
ATOM     11  C   LIG    1        2.688  -1.219   3.875  0.00  0.00    +0.040 C 
ENDBRANCH   1   4
BRANCH   1  12
ATOM     12  C   LIG    1        0.612  -2.055   1.578  0.00  0.00    +0.300 C 
BRANCH  12  14
ATOM     13  C   LIG    1       -1.298  -1.459   0.179  0.00  0.00    +0.120 C 
ATOM     14  C   LIG    1       -0.714  -1.377   1.349  0.00  0.00    -0.200 C 
BRANCH  14  15
ATOM     15  C   LIG    1       -1.369  -0.606   2.466  0.00  0.00    +0.070 C 
ATOM     16  C   LIG    1       -2.176  -1.565   3.343  0.00  0.00    +0.040 C 
ENDBRANCH  14  15
ENDBRANCH  12  14
ENDBRANCH   1  12
TORSDOF 4
ENDMDL
MODEL       68
REMARK  Name = ZINC000086875023
REMARK                            x       y       z     vdW  Elec       q    Type
REMARK                         _______ _______ _______ _____ _____    ______ ____
ROOT
ATOM      1  N   LIG    1        1.699  -1.091   1.360  0.00  0.00    -0.510 N 
ATOM      2  H   LIG    1        0.988  -1.682   1.765  0.00  0.00    +0.420 HD
ATOM      3  H   LIG    1        1.791  -0.250   1.909  0.00  0.00    +0.420 HD
ENDROOT
BRANCH   1   4
ATOM      4  C   LIG    1        2.981  -1.809   1.344  0.00  0.00    +0.170 C 
ATOM      5  C   LIG    1        2.809  -3.144   0.617  0.00  0.00    +0.040 C 
ATOM      6  C   LIG    1        4.144  -3.891   0.600  0.00  0.00    +0.030 C 
ATOM      7  C   LIG    1        4.603  -4.148   2.037  0.00  0.00    +0.020 C 
ATOM      8  C   LIG    1        4.775  -2.812   2.764  0.00  0.00    +0.060 C 
ATOM      9  C   LIG    1        3.440  -2.065   2.780  0.00  0.00    -0.080 C 
ATOM     10  C   LIG    1        2.392  -2.910   3.507  0.00  0.00    +0.040 C 
ATOM     11  C   LIG    1        3.611  -0.730   3.507  0.00  0.00    +0.040 C 
ENDBRANCH   1   4
BRANCH   1  12
ATOM     12  C   LIG    1        1.317  -0.740  -0.015  0.00  0.00    +0.300 C 
BRANCH  12  14
ATOM     13  C   LIG    1       -0.016   1.306   0.009  0.00  0.00    +0.120 C 
ATOM     14  C   LIG    1        0.002  -0.004   0.002  0.00  0.00    -0.200 C 
BRANCH  14  15
ATOM     15  C   LIG    1       -1.293  -0.775   0.010  0.00  0.00    +0.060 C 
ATOM     16  C   LIG    1       -1.680  -1.137  -1.425  0.00  0.00    +0.040 C 
ENDBRANCH  14  15
ENDBRANCH  12  14
ENDBRANCH   1  12
TORSDOF 4
ENDMDL
MODEL       69
REMARK  Name = ZINC000086875188
REMARK                            x       y       z     vdW  Elec       q    Type
REMARK                         _______ _______ _______ _____ _____    ______ ____
ROOT
ATOM      1  N   LIG    1       -2.658  -3.451  -2.307  0.00  0.00    -0.510 N 
ATOM      2  H   LIG    1       -1.884  -4.093  -2.235  0.00  0.00    +0.420 HD
ATOM      3  H   LIG    1       -2.583  -2.929  -3.167  0.00  0.00    +0.430 HD
ENDROOT
BRANCH   1   4
ATOM      4  C   LIG    1       -3.920  -4.202  -2.299  0.00  0.00    +0.170 C 
ATOM      5  C   LIG    1       -3.978  -5.090  -1.054  0.00  0.00    +0.040 C 
ATOM      6  C   LIG    1       -5.292  -5.873  -1.046  0.00  0.00    +0.030 C 
ATOM      7  C   LIG    1       -5.373  -6.747  -2.299  0.00  0.00    +0.020 C 
ATOM      8  C   LIG    1       -5.316  -5.859  -3.544  0.00  0.00    +0.060 C 
ATOM      9  C   LIG    1       -4.001  -5.076  -3.553  0.00  0.00    -0.080 C 
ATOM     10  C   LIG    1       -2.825  -6.055  -3.569  0.00  0.00    +0.040 C 
ATOM     11  C   LIG    1       -3.944  -4.189  -4.798  0.00  0.00    +0.040 C 
ENDBRANCH   1   4
BRANCH   1  12
ATOM     12  C   LIG    1       -2.633  -2.524  -1.168  0.00  0.00    +0.250 C 
BRANCH  12  13
ATOM     13  C   LIG    1       -1.319  -1.741  -1.176  0.00  0.00    +0.040 C 
BRANCH  13  14
ATOM     14  C   LIG    1       -1.293  -0.775   0.010  0.00  0.00    +0.070 C 
BRANCH  14  16
ATOM     15  C   LIG    1       -0.016   1.306   0.009  0.00  0.00    +0.030 C 
ATOM     16  C   LIG    1        0.002  -0.004   0.002  0.00  0.00    -0.070 C 
ENDBRANCH  14  16
ENDBRANCH  13  14
ENDBRANCH  12  13
ENDBRANCH   1  12
TORSDOF 5
ENDMDL
MODEL       70
REMARK  Name = ZINC000086875185
REMARK                            x       y       z     vdW  Elec       q    Type
REMARK                         _______ _______ _______ _____ _____    ______ ____
ROOT
ATOM      1  N   LIG    1       -2.658  -3.451  -2.307  0.00  0.00    -0.510 N 
ATOM      2  H   LIG    1       -1.884  -4.093  -2.235  0.00  0.00    +0.430 HD
ATOM      3  H   LIG    1       -2.583  -2.929  -3.167  0.00  0.00    +0.420 HD
ENDROOT
BRANCH   1   4
ATOM      4  C   LIG    1       -3.920  -4.202  -2.299  0.00  0.00    +0.170 C 
ATOM      5  C   LIG    1       -5.088  -3.242  -2.534  0.00  0.00    +0.040 C 
ATOM      6  C   LIG    1       -6.402  -4.024  -2.525  0.00  0.00    +0.030 C 
ATOM      7  C   LIG    1       -6.376  -5.076  -3.636  0.00  0.00    +0.020 C 
ATOM      8  C   LIG    1       -5.209  -6.037  -3.402  0.00  0.00    +0.060 C 
ATOM      9  C   LIG    1       -3.894  -5.254  -3.410  0.00  0.00    -0.080 C 
ATOM     10  C   LIG    1       -2.727  -6.215  -3.176  0.00  0.00    +0.040 C 
ATOM     11  C   LIG    1       -3.722  -4.562  -4.764  0.00  0.00    +0.040 C 
ENDBRANCH   1   4
BRANCH   1  12
ATOM     12  C   LIG    1       -2.633  -2.524  -1.168  0.00  0.00    +0.250 C 
BRANCH  12  13
ATOM     13  C   LIG    1       -1.319  -1.741  -1.176  0.00  0.00    +0.040 C 
BRANCH  13  14
ATOM     14  C   LIG    1       -1.293  -0.775   0.010  0.00  0.00    +0.070 C 
BRANCH  14  16
ATOM     15  C   LIG    1       -0.016   1.306   0.009  0.00  0.00    +0.030 C 
ATOM     16  C   LIG    1        0.002  -0.004   0.002  0.00  0.00    -0.070 C 
ENDBRANCH  14  16
ENDBRANCH  13  14
ENDBRANCH  12  13
ENDBRANCH   1  12
TORSDOF 5
ENDMDL
MODEL       71
REMARK  Name = ZINC000086875027
REMARK                            x       y       z     vdW  Elec       q    Type
REMARK                         _______ _______ _______ _____ _____    ______ ____
ROOT
ATOM      1  N   LIG    1        1.699  -1.091   1.360  0.00  0.00    -0.510 N 
ATOM      2  H   LIG    1        0.988  -1.682   1.765  0.00  0.00    +0.420 HD
ATOM      3  H   LIG    1        1.791  -0.250   1.909  0.00  0.00    +0.420 HD
ENDROOT
BRANCH   1   4
ATOM      4  C   LIG    1        2.981  -1.809   1.344  0.00  0.00    +0.170 C 
ATOM      5  C   LIG    1        4.083  -0.872   0.845  0.00  0.00    +0.040 C 
ATOM      6  C   LIG    1        5.418  -1.619   0.828  0.00  0.00    +0.030 C 
ATOM      7  C   LIG    1        5.754  -2.094   2.243  0.00  0.00    +0.020 C 
ATOM      8  C   LIG    1        4.652  -3.031   2.742  0.00  0.00    +0.060 C 
ATOM      9  C   LIG    1        3.317  -2.284   2.759  0.00  0.00    -0.080 C 
ATOM     10  C   LIG    1        2.215  -3.220   3.257  0.00  0.00    +0.040 C 
ATOM     11  C   LIG    1        3.420  -1.075   3.691  0.00  0.00    +0.040 C 
ENDBRANCH   1   4
BRANCH   1  12
ATOM     12  C   LIG    1        1.317  -0.740  -0.015  0.00  0.00    +0.310 C 
BRANCH  12  14
ATOM     13  C   LIG    1       -0.016   1.306   0.009  0.00  0.00    +0.120 C 
ATOM     14  C   LIG    1        0.002  -0.004   0.002  0.00  0.00    -0.200 C 
BRANCH  14  15
ATOM     15  C   LIG    1       -1.293  -0.775   0.010  0.00  0.00    +0.060 C 
ATOM     16  C   LIG    1       -1.680  -1.137  -1.425  0.00  0.00    +0.040 C 
ENDBRANCH  14  15
ENDBRANCH  12  14
ENDBRANCH   1  12
TORSDOF 4
ENDMDL
MODEL       72
REMARK  Name = ZINC000126700099
REMARK                            x       y       z     vdW  Elec       q    Type
REMARK                         _______ _______ _______ _____ _____    ______ ____
ROOT
ATOM      1  N   LIG    1       -3.754  -1.601  -1.393  0.00  0.00    -0.510 N 
ATOM      2  H   LIG    1       -3.684  -1.206  -2.319  0.00  0.00    +0.420 HD
ATOM      3  H   LIG    1       -3.723  -0.861  -0.708  0.00  0.00    +0.420 HD
ENDROOT
BRANCH   1   4
ATOM      4  C   LIG    1       -5.022  -2.332  -1.266  0.00  0.00    +0.160 C 
ATOM      5  C   LIG    1       -5.186  -2.824   0.173  0.00  0.00    +0.040 C 
ATOM      6  C   LIG    1       -6.507  -3.584   0.305  0.00  0.00    +0.030 C 
ATOM      7  C   LIG    1       -7.668  -2.655  -0.051  0.00  0.00    +0.020 C 
ATOM      8  C   LIG    1       -7.505  -2.162  -1.490  0.00  0.00    +0.060 C 
ATOM      9  C   LIG    1       -6.184  -1.402  -1.622  0.00  0.00    -0.020 C 
ATOM     10  C   LIG    1       -6.188  -0.203  -0.671  0.00  0.00    +0.030 C 
ENDBRANCH   1   4
BRANCH   1  11
ATOM     11  C   LIG    1       -2.633  -2.524  -1.168  0.00  0.00    +0.160 C 
ATOM     12  C   LIG    1       -2.607  -3.575  -2.279  0.00  0.00    +0.090 C 
BRANCH  11  13
ATOM     13  C   LIG    1       -1.319  -1.741  -1.176  0.00  0.00    +0.060 C 
BRANCH  13  14
ATOM     14  C   LIG    1       -1.293  -0.775   0.010  0.00  0.00    +0.050 C 
BRANCH  14  16
ATOM     15  C   LIG    1       -0.016   1.306   0.009  0.00  0.00    +0.040 C 
ATOM     16  C   LIG    1        0.002  -0.004   0.002  0.00  0.00    -0.050 C 
ENDBRANCH  14  16
ENDBRANCH  13  14
ENDBRANCH  11  13
ENDBRANCH   1  11
TORSDOF 5
ENDMDL
MODEL       73
REMARK  Name = ZINC000126700312
REMARK                            x       y       z     vdW  Elec       q    Type
REMARK                         _______ _______ _______ _____ _____    ______ ____
ROOT
ATOM      1  N   LIG    1       -3.754  -1.601  -1.393  0.00  0.00    -0.510 N 
ATOM      2  H   LIG    1       -3.684  -1.206  -2.319  0.00  0.00    +0.420 HD
ATOM      3  H   LIG    1       -3.723  -0.861  -0.708  0.00  0.00    +0.420 HD
ENDROOT
BRANCH   1   4
ATOM      4  C   LIG    1       -5.022  -2.332  -1.266  0.00  0.00    +0.160 C 
ATOM      5  C   LIG    1       -5.186  -2.824   0.173  0.00  0.00    +0.040 C 
ATOM      6  C   LIG    1       -6.507  -3.584   0.305  0.00  0.00    +0.030 C 
ATOM      7  C   LIG    1       -7.668  -2.655  -0.051  0.00  0.00    +0.020 C 
ATOM      8  C   LIG    1       -7.505  -2.162  -1.490  0.00  0.00    +0.060 C 
ATOM      9  C   LIG    1       -6.184  -1.402  -1.622  0.00  0.00    -0.020 C 
ATOM     10  C   LIG    1       -6.021  -0.909  -3.062  0.00  0.00    +0.040 C 
ENDBRANCH   1   4
BRANCH   1  11
ATOM     11  C   LIG    1       -2.633  -2.524  -1.168  0.00  0.00    +0.160 C 
ATOM     12  C   LIG    1       -2.607  -3.575  -2.279  0.00  0.00    +0.090 C 
BRANCH  11  13
ATOM     13  C   LIG    1       -1.319  -1.741  -1.176  0.00  0.00    +0.060 C 
BRANCH  13  14
ATOM     14  C   LIG    1       -1.293  -0.775   0.010  0.00  0.00    +0.050 C 
BRANCH  14  16
ATOM     15  C   LIG    1       -0.016   1.306   0.009  0.00  0.00    +0.040 C 
ATOM     16  C   LIG    1        0.002  -0.004   0.002  0.00  0.00    -0.050 C 
ENDBRANCH  14  16
ENDBRANCH  13  14
ENDBRANCH  11  13
ENDBRANCH   1  11
TORSDOF 5
ENDMDL
MODEL       74
REMARK  Name = ZINC000126700525
REMARK                            x       y       z     vdW  Elec       q    Type
REMARK                         _______ _______ _______ _____ _____    ______ ____
ROOT
ATOM      1  N   LIG    1       -3.541  -1.502  -1.358  0.00  0.00    -0.510 N 
ATOM      2  H   LIG    1       -3.334  -1.069  -2.245  0.00  0.00    +0.420 HD
ATOM      3  H   LIG    1       -3.467  -0.815  -0.623  0.00  0.00    +0.420 HD
ENDROOT
BRANCH   1   4
ATOM      4  C   LIG    1       -4.905  -2.046  -1.385  0.00  0.00    +0.160 C 
ATOM      5  C   LIG    1       -5.044  -3.016  -2.559  0.00  0.00    +0.040 C 
ATOM      6  C   LIG    1       -6.465  -3.583  -2.587  0.00  0.00    +0.040 C 
ATOM      7  C   LIG    1       -7.467  -2.439  -2.749  0.00  0.00    +0.020 C 
ATOM      8  C   LIG    1       -7.328  -1.469  -1.574  0.00  0.00    +0.050 C 
ATOM      9  C   LIG    1       -5.907  -0.902  -1.546  0.00  0.00    -0.020 C 
ATOM     10  C   LIG    1       -5.768   0.068  -0.371  0.00  0.00    +0.040 C 
ENDBRANCH   1   4
BRANCH   1  11
ATOM     11  C   LIG    1       -2.584  -2.589  -1.109  0.00  0.00    +0.160 C 
ATOM     12  C   LIG    1       -1.275  -2.294  -1.843  0.00  0.00    +0.090 C 
BRANCH  11  13
ATOM     13  C   LIG    1       -2.314  -2.697   0.393  0.00  0.00    +0.070 C 
BRANCH  13  14
ATOM     14  C   LIG    1       -3.578  -3.183   1.105  0.00  0.00    +0.040 C 
BRANCH  14  16
ATOM     15  C   LIG    1       -3.985  -2.836   3.487  0.00  0.00    +0.040 C 
ATOM     16  C   LIG    1       -3.272  -3.427   2.560  0.00  0.00    -0.050 C 
ENDBRANCH  14  16
ENDBRANCH  13  14
ENDBRANCH  11  13
ENDBRANCH   1  11
TORSDOF 5
ENDMDL
MODEL       75
REMARK  Name = ZINC000126706332
REMARK                            x       y       z     vdW  Elec       q    Type
REMARK                         _______ _______ _______ _____ _____    ______ ____
ROOT
ATOM      1  N   LIG    1        3.677  -1.436   1.612  0.00  0.00    -0.510 N 
ATOM      2  H   LIG    1        2.986  -2.127   1.866  0.00  0.00    +0.420 HD
ATOM      3  H   LIG    1        3.758  -0.754   2.351  0.00  0.00    +0.420 HD
ENDROOT
BRANCH   1   4
ATOM      4  C   LIG    1        3.267  -0.767   0.370  0.00  0.00    +0.150 C 
ATOM      5  C   LIG    1        2.986  -1.817  -0.706  0.00  0.00    +0.090 C 
BRANCH   4   6
ATOM      6  C   LIG    1        2.001   0.053   0.627  0.00  0.00    +0.060 C 
BRANCH   6   7
ATOM      7  C   LIG    1        2.314   1.181   1.611  0.00  0.00    +0.050 C 
BRANCH   7   9
ATOM      8  C   LIG    1        0.639   2.167   3.088  0.00  0.00    +0.040 C 
ATOM      9  C   LIG    1        1.067   1.989   1.863  0.00  0.00    -0.050 C 
ENDBRANCH   7   9
ENDBRANCH   6   7
ENDBRANCH   4   6
ENDBRANCH   1   4
BRANCH   1  10
ATOM     10  C   LIG    1        4.975  -2.094   1.408  0.00  0.00    +0.160 C 
ATOM     11  C   LIG    1        5.088  -3.300   2.343  0.00  0.00    +0.090 C 
BRANCH  10  12
ATOM     12  C   LIG    1        6.101  -1.105   1.714  0.00  0.00    +0.060 C 
BRANCH  12  13
ATOM     13  C   LIG    1        6.079   0.027   0.685  0.00  0.00    +0.010 C 
BRANCH  13  14
ATOM     14  C   LIG    1        7.253   0.974   0.942  0.00  0.00    -0.020 C 
ATOM     15  C   LIG    1        7.160   2.171  -0.005  0.00  0.00    +0.020 C 
ATOM     16  C   LIG    1        8.569   0.232   0.698  0.00  0.00    +0.020 C 
ENDBRANCH  13  14
ENDBRANCH  12  13
ENDBRANCH  10  12
ENDBRANCH   1  10
TORSDOF 8
ENDMDL
MODEL       76
REMARK  Name = ZINC000126706561
REMARK                            x       y       z     vdW  Elec       q    Type
REMARK                         _______ _______ _______ _____ _____    ______ ____
ROOT
ATOM      1  N   LIG    1        3.800  -1.514   1.380  0.00  0.00    -0.510 N 
ATOM      2  H   LIG    1        3.720  -1.132   2.310  0.00  0.00    +0.420 HD
ATOM      3  H   LIG    1        3.749  -0.767   0.704  0.00  0.00    +0.420 HD
ENDROOT
BRANCH   1   4
ATOM      4  C   LIG    1        2.705  -2.464   1.145  0.00  0.00    +0.160 C 
ATOM      5  C   LIG    1        2.708  -3.528   2.244  0.00  0.00    +0.090 C 
BRANCH   4   6
ATOM      6  C   LIG    1        1.370  -1.717   1.161  0.00  0.00    +0.060 C 
BRANCH   6   7
ATOM      7  C   LIG    1        1.317  -0.740  -0.015  0.00  0.00    +0.050 C 
BRANCH   7   9
ATOM      8  C   LIG    1       -0.016   1.306   0.009  0.00  0.00    +0.040 C 
ATOM      9  C   LIG    1        0.002  -0.004   0.002  0.00  0.00    -0.050 C 
ENDBRANCH   7   9
ENDBRANCH   6   7
ENDBRANCH   4   6
ENDBRANCH   1   4
BRANCH   1  10
ATOM     10  C   LIG    1        5.088  -2.208   1.245  0.00  0.00    +0.160 C 
ATOM     11  C   LIG    1        5.264  -2.680  -0.200  0.00  0.00    +0.090 C 
BRANCH  10  12
ATOM     12  C   LIG    1        6.224  -1.251   1.612  0.00  0.00    +0.050 C 
BRANCH  12  13
ATOM     13  C   LIG    1        6.119  -0.877   3.091  0.00  0.00    +0.010 C 
BRANCH  13  14
ATOM     14  C   LIG    1        7.255   0.080   3.458  0.00  0.00    -0.020 C 
ATOM     15  C   LIG    1        7.224   0.356   4.963  0.00  0.00    +0.030 C 
ATOM     16  C   LIG    1        7.080   1.394   2.695  0.00  0.00    +0.000 C 
ENDBRANCH  13  14
ENDBRANCH  12  13
ENDBRANCH  10  12
ENDBRANCH   1  10
TORSDOF 8
ENDMDL
MODEL       77
REMARK  Name = ZINC000126707004
REMARK                            x       y       z     vdW  Elec       q    Type
REMARK                         _______ _______ _______ _____ _____    ______ ____
ROOT
ATOM      1  N   LIG    1        2.896  -3.282  -0.197  0.00  0.00    -0.510 N 
ATOM      2  H   LIG    1        2.758  -2.666  -0.984  0.00  0.00    +0.420 HD
ATOM      3  H   LIG    1        2.249  -4.054  -0.256  0.00  0.00    +0.420 HD
ENDROOT
BRANCH   1   4
ATOM      4  C   LIG    1        2.664  -2.542   1.050  0.00  0.00    +0.160 C 
ATOM      5  C   LIG    1        1.189  -2.654   1.442  0.00  0.00    +0.090 C 
BRANCH   4   6
ATOM      6  C   LIG    1        3.026  -1.070   0.846  0.00  0.00    +0.060 C 
BRANCH   6   7
ATOM      7  C   LIG    1        4.520  -0.951   0.535  0.00  0.00    +0.040 C 
BRANCH   7   9
ATOM      8  C   LIG    1        5.874   0.966   1.208  0.00  0.00    +0.050 C 
ATOM      9  C   LIG    1        4.903   0.505   0.460  0.00  0.00    -0.060 C 
ENDBRANCH   7   9
ENDBRANCH   6   7
ENDBRANCH   4   6
ENDBRANCH   1   4
BRANCH   1  10
ATOM     10  C   LIG    1        4.273  -3.795  -0.213  0.00  0.00    +0.160 C 
ATOM     11  C   LIG    1        4.434  -4.856   0.877  0.00  0.00    +0.090 C 
BRANCH  10  12
ATOM     12  C   LIG    1        4.570  -4.417  -1.579  0.00  0.00    +0.050 C 
BRANCH  12  13
ATOM     13  C   LIG    1        4.530  -3.329  -2.655  0.00  0.00    +0.010 C 
BRANCH  13  14
ATOM     14  C   LIG    1        4.827  -3.951  -4.020  0.00  0.00    -0.020 C 
ATOM     15  C   LIG    1        4.911  -2.848  -5.076  0.00  0.00    +0.030 C 
ATOM     16  C   LIG    1        3.708  -4.927  -4.390  0.00  0.00    +0.010 C 
ENDBRANCH  13  14
ENDBRANCH  12  13
ENDBRANCH  10  12
ENDBRANCH   1  10
TORSDOF 8
ENDMDL
MODEL       78
REMARK  Name = ZINC000126706775
REMARK                            x       y       z     vdW  Elec       q    Type
REMARK                         _______ _______ _______ _____ _____    ______ ____
ROOT
ATOM      1  N   LIG    1        2.783  -3.301  -0.060  0.00  0.00    -0.510 N 
ATOM      2  H   LIG    1        2.631  -2.729  -0.877  0.00  0.00    +0.420 HD
ATOM      3  H   LIG    1        2.075  -4.019  -0.017  0.00  0.00    +0.420 HD
ENDROOT
BRANCH   1   4
ATOM      4  C   LIG    1        2.705  -2.464   1.145  0.00  0.00    +0.160 C 
ATOM      5  C   LIG    1        2.810  -3.349   2.388  0.00  0.00    +0.090 C 
BRANCH   4   6
ATOM      6  C   LIG    1        1.370  -1.717   1.161  0.00  0.00    +0.060 C 
BRANCH   6   7
ATOM      7  C   LIG    1        1.317  -0.740  -0.015  0.00  0.00    +0.040 C 
BRANCH   7   9
ATOM      8  C   LIG    1       -0.016   1.306   0.009  0.00  0.00    +0.050 C 
ATOM      9  C   LIG    1        0.002  -0.004   0.002  0.00  0.00    -0.070 C 
ENDBRANCH   7   9
ENDBRANCH   6   7
ENDBRANCH   4   6
ENDBRANCH   1   4
BRANCH   1  10
ATOM     10  C   LIG    1        4.110  -3.925  -0.138  0.00  0.00    +0.160 C 
ATOM     11  C   LIG    1        5.173  -2.841  -0.329  0.00  0.00    +0.090 C 
BRANCH  10  12
ATOM     12  C   LIG    1        4.150  -4.893  -1.322  0.00  0.00    +0.060 C 
BRANCH  12  13
ATOM     13  C   LIG    1        3.176  -6.045  -1.073  0.00  0.00    +0.010 C 
BRANCH  13  14
ATOM     14  C   LIG    1        3.216  -7.013  -2.257  0.00  0.00    -0.020 C 
ATOM     15  C   LIG    1        2.153  -8.097  -2.066  0.00  0.00    +0.030 C 
ATOM     16  C   LIG    1        4.598  -7.662  -2.338  0.00  0.00    +0.020 C 
ENDBRANCH  13  14
ENDBRANCH  12  13
ENDBRANCH  10  12
ENDBRANCH   1  10
TORSDOF 8
ENDMDL
MODEL       79
REMARK  Name = ZINC000126700717
REMARK                            x       y       z     vdW  Elec       q    Type
REMARK                         _______ _______ _______ _____ _____    ______ ____
ROOT
ATOM      1  N   LIG    1       -3.724  -1.551  -1.415  0.00  0.00    -0.510 N 
ATOM      2  H   LIG    1       -2.982  -2.231  -1.349  0.00  0.00    +0.420 HD
ATOM      3  H   LIG    1       -3.650  -1.055  -2.290  0.00  0.00    +0.420 HD
ENDROOT
BRANCH   1   4
ATOM      4  C   LIG    1       -5.022  -2.235  -1.349  0.00  0.00    +0.160 C 
ATOM      5  C   LIG    1       -5.077  -3.330  -2.416  0.00  0.00    +0.040 C 
ATOM      6  C   LIG    1       -6.429  -4.043  -2.347  0.00  0.00    +0.040 C 
ATOM      7  C   LIG    1       -7.551  -3.033  -2.595  0.00  0.00    +0.020 C 
ATOM      8  C   LIG    1       -7.497  -1.938  -1.528  0.00  0.00    +0.040 C 
ATOM      9  C   LIG    1       -6.145  -1.225  -1.597  0.00  0.00    -0.020 C 
ATOM     10  C   LIG    1       -5.969  -0.598  -2.981  0.00  0.00    +0.040 C 
ENDBRANCH   1   4
BRANCH   1  11
ATOM     11  C   LIG    1       -3.615  -0.599  -0.301  0.00  0.00    +0.160 C 
ATOM     12  C   LIG    1       -3.592  -1.363   1.023  0.00  0.00    +0.090 C 
BRANCH  11  13
ATOM     13  C   LIG    1       -2.325   0.210  -0.447  0.00  0.00    +0.060 C 
BRANCH  13  14
ATOM     14  C   LIG    1       -2.401   1.071  -1.709  0.00  0.00    +0.050 C 
BRANCH  14  16
ATOM     15  C   LIG    1       -0.428   1.789  -2.956  0.00  0.00    +0.040 C 
ATOM     16  C   LIG    1       -1.130   1.867  -1.852  0.00  0.00    -0.050 C 
ENDBRANCH  14  16
ENDBRANCH  13  14
ENDBRANCH  11  13
ENDBRANCH   1  11
TORSDOF 5
ENDMDL
MODEL       80
REMARK  Name = ZINC000126705420
REMARK                            x       y       z     vdW  Elec       q    Type
REMARK                         _______ _______ _______ _____ _____    ______ ____
ROOT
ATOM      1  N   LIG    1       -3.754  -1.601  -1.393  0.00  0.00    -0.510 N 
ATOM      2  H   LIG    1       -3.612  -1.192  -2.304  0.00  0.00    +0.430 HD
ATOM      3  H   LIG    1       -3.793  -0.871  -0.698  0.00  0.00    +0.420 HD
ENDROOT
BRANCH   1   4
ATOM      4  C   LIG    1       -5.016  -2.353  -1.385  0.00  0.00    +0.160 C 
ATOM      5  C   LIG    1       -5.323  -2.810   0.015  0.00  0.00    +0.020 C 
ATOM      6  C   LIG    1       -6.036  -4.176   0.047  0.00  0.00    +0.030 C 
ATOM      7  C   LIG    1       -7.119  -4.309  -1.041  0.00  0.00    +0.000 C 
ATOM      8  C   LIG    1       -7.939  -3.057  -1.194  0.00  0.00    +0.020 C 
ATOM      9  C   LIG    1       -7.321  -2.201  -2.318  0.00  0.00    +0.020 C 
ATOM     10  C   LIG    1       -6.165  -1.442  -1.866  0.00  0.00    +0.040 C 
ENDBRANCH   1   4
BRANCH   1  11
ATOM     11  C   LIG    1       -2.641  -2.510  -1.086  0.00  0.00    +0.160 C 
ATOM     12  C   LIG    1       -2.488  -3.529  -2.217  0.00  0.00    +0.090 C 
BRANCH  11  13
ATOM     13  C   LIG    1       -1.348  -1.703  -0.948  0.00  0.00    +0.060 C 
BRANCH  13  14
ATOM     14  C   LIG    1       -1.455  -0.771   0.261  0.00  0.00    +0.050 C 
BRANCH  14  16
ATOM     15  C   LIG    1       -0.227   1.331   0.438  0.00  0.00    +0.040 C 
ATOM     16  C   LIG    1       -0.182   0.023   0.398  0.00  0.00    -0.050 C 
ENDBRANCH  14  16
ENDBRANCH  13  14
ENDBRANCH  11  13
ENDBRANCH   1  11
TORSDOF 5
ENDMDL
MODEL       81
REMARK  Name = ZINC000126705637
REMARK                            x       y       z     vdW  Elec       q    Type
REMARK                         _______ _______ _______ _____ _____    ______ ____
ROOT
ATOM      1  N   LIG    1       -2.747  -3.317  -0.064  0.00  0.00    -0.510 N 
ATOM      2  H   LIG    1       -2.085  -4.054   0.121  0.00  0.00    +0.420 HD
ATOM      3  H   LIG    1       -2.545  -2.901  -0.961  0.00  0.00    +0.430 HD
ENDROOT
BRANCH   1   4
ATOM      4  C   LIG    1       -4.107  -3.872  -0.078  0.00  0.00    +0.160 C 
ATOM      5  C   LIG    1       -4.251  -4.829  -1.230  0.00  0.00    +0.030 C 
ATOM      6  C   LIG    1       -5.668  -4.814  -1.835  0.00  0.00    +0.030 C 
ATOM      7  C   LIG    1       -6.775  -4.755  -0.764  0.00  0.00    +0.000 C 
ATOM      8  C   LIG    1       -6.488  -5.653   0.409  0.00  0.00    +0.020 C 
ATOM      9  C   LIG    1       -5.785  -4.821   1.501  0.00  0.00    +0.020 C 
ATOM     10  C   LIG    1       -4.366  -4.641   1.234  0.00  0.00    +0.040 C 
ENDBRANCH   1   4
BRANCH   1  11
ATOM     11  C   LIG    1       -2.647  -2.292   0.984  0.00  0.00    +0.160 C 
ATOM     12  C   LIG    1       -3.547  -1.108   0.628  0.00  0.00    +0.090 C 
BRANCH  11  13
ATOM     13  C   LIG    1       -1.197  -1.816   1.094  0.00  0.00    +0.060 C 
BRANCH  13  14
ATOM     14  C   LIG    1       -0.315  -2.972   1.572  0.00  0.00    +0.040 C 
BRANCH  14  16
ATOM     15  C   LIG    1        1.764  -2.642   2.808  0.00  0.00    +0.050 C 
ATOM     16  C   LIG    1        1.113  -2.503   1.680  0.00  0.00    -0.070 C 
ENDBRANCH  14  16
ENDBRANCH  13  14
ENDBRANCH  11  13
ENDBRANCH   1  11
TORSDOF 5
ENDMDL
MODEL       82
REMARK  Name = ZINC000126788923
REMARK                            x       y       z     vdW  Elec       q    Type
REMARK                         _______ _______ _______ _____ _____    ______ ____
ROOT
ATOM      1  N   LIG    1       -3.754  -1.601  -1.393  0.00  0.00    -0.510 N 
ATOM      2  H   LIG    1       -3.684  -1.206  -2.319  0.00  0.00    +0.430 HD
ATOM      3  H   LIG    1       -3.723  -0.861  -0.708  0.00  0.00    +0.420 HD
ENDROOT
BRANCH   1   4
ATOM      4  C   LIG    1       -5.022  -2.332  -1.266  0.00  0.00    +0.160 C 
ATOM      5  C   LIG    1       -5.186  -2.824   0.173  0.00  0.00    +0.040 C 
ATOM      6  C   LIG    1       -6.507  -3.584   0.305  0.00  0.00    +0.040 C 
ATOM      7  C   LIG    1       -7.668  -2.655  -0.051  0.00  0.00    +0.020 C 
ATOM      8  C   LIG    1       -7.505  -2.162  -1.490  0.00  0.00    +0.000 C 
ATOM      9  C   LIG    1       -8.667  -1.233  -1.846  0.00  0.00    +0.040 C 
ATOM     10  C   LIG    1       -6.184  -1.402  -1.622  0.00  0.00    +0.040 C 
ENDBRANCH   1   4
BRANCH   1  11
ATOM     11  C   LIG    1       -2.633  -2.524  -1.168  0.00  0.00    +0.160 C 
ATOM     12  C   LIG    1       -2.607  -3.575  -2.279  0.00  0.00    +0.090 C 
BRANCH  11  13
ATOM     13  C   LIG    1       -1.319  -1.741  -1.176  0.00  0.00    +0.060 C 
BRANCH  13  14
ATOM     14  C   LIG    1       -1.293  -0.775   0.010  0.00  0.00    +0.050 C 
BRANCH  14  16
ATOM     15  C   LIG    1       -0.016   1.306   0.009  0.00  0.00    +0.040 C 
ATOM     16  C   LIG    1        0.002  -0.004   0.002  0.00  0.00    -0.050 C 
ENDBRANCH  14  16
ENDBRANCH  13  14
ENDBRANCH  11  13
ENDBRANCH   1  11
TORSDOF 5
ENDMDL
MODEL       83
REMARK  Name = ZINC000196918219
REMARK                            x       y       z     vdW  Elec       q    Type
REMARK                         _______ _______ _______ _____ _____    ______ ____
ROOT
ATOM      1  N   LIG    1       -1.363  -1.608  -1.196  0.00  0.00    -0.380 N 
ATOM      2  H   LIG    1       -1.115  -1.009  -1.969  0.00  0.00    +0.420 HD
ENDROOT
BRANCH   1   3
ATOM      3  C   LIG    1       -1.355  -0.829   0.050  0.00  0.00    +0.280 C 
BRANCH   3   5
ATOM      4  C   LIG    1        0.037   1.152   0.361  0.00  0.00    +0.130 C 
ATOM      5  C   LIG    1       -0.021  -0.148   0.207  0.00  0.00    -0.110 C 
ENDBRANCH   3   5
ENDBRANCH   1   3
BRANCH   1   6
ATOM      6  C   LIG    1       -2.705  -2.163  -1.418  0.00  0.00    +0.240 C 
BRANCH   6   7
ATOM      7  C   LIG    1       -3.698  -1.022  -1.648  0.00  0.00    +0.040 C 
BRANCH   7   8
ATOM      8  C   LIG    1       -5.095  -1.600  -1.879  0.00  0.00    -0.010 C 
ATOM      9  C   LIG    1       -6.063  -0.469  -2.232  0.00  0.00    +0.040 C 
ATOM     10  C   LIG    1       -5.574  -2.302  -0.606  0.00  0.00    +0.020 C 
ENDBRANCH   7   8
ENDBRANCH   6   7
ENDBRANCH   1   6
BRANCH   1  11
ATOM     11  C   LIG    1       -0.391  -2.704  -1.094  0.00  0.00    +0.250 C 
BRANCH  11  12
ATOM     12  C   LIG    1       -0.294  -3.427  -2.439  0.00  0.00    +0.040 C 
BRANCH  12  13
ATOM     13  C   LIG    1        0.814  -4.480  -2.374  0.00  0.00    -0.010 C 
ATOM     14  C   LIG    1        0.996  -5.115  -3.754  0.00  0.00    +0.040 C 
ATOM     15  C   LIG    1        0.431  -5.561  -1.361  0.00  0.00    +0.020 C 
ENDBRANCH  12  13
ENDBRANCH  11  12
ENDBRANCH   1  11
TORSDOF 8
ENDMDL
MODEL       84
REMARK  Name = ZINC000126789619
REMARK                            x       y       z     vdW  Elec       q    Type
REMARK                         _______ _______ _______ _____ _____    ______ ____
ROOT
ATOM      1  N   LIG    1       -3.726  -1.544  -1.416  0.00  0.00    -0.510 N 
ATOM      2  H   LIG    1       -2.982  -2.223  -1.361  0.00  0.00    +0.430 HD
ATOM      3  H   LIG    1       -3.659  -1.042  -2.289  0.00  0.00    +0.420 HD
ENDROOT
BRANCH   1   4
ATOM      4  C   LIG    1       -5.023  -2.230  -1.344  0.00  0.00    +0.160 C 
ATOM      5  C   LIG    1       -5.082  -3.321  -2.415  0.00  0.00    +0.040 C 
ATOM      6  C   LIG    1       -6.433  -4.036  -2.341  0.00  0.00    +0.040 C 
ATOM      7  C   LIG    1       -7.558  -3.026  -2.578  0.00  0.00    +0.020 C 
ATOM      8  C   LIG    1       -7.499  -1.935  -1.507  0.00  0.00    +0.000 C 
ATOM      9  C   LIG    1       -8.624  -0.926  -1.745  0.00  0.00    +0.040 C 
ATOM     10  C   LIG    1       -6.148  -1.220  -1.582  0.00  0.00    +0.040 C 
ENDBRANCH   1   4
BRANCH   1  11
ATOM     11  C   LIG    1       -3.610  -0.598  -0.298  0.00  0.00    +0.160 C 
ATOM     12  C   LIG    1       -3.574  -1.371   1.022  0.00  0.00    +0.090 C 
BRANCH  11  13
ATOM     13  C   LIG    1       -2.322   0.214  -0.448  0.00  0.00    +0.060 C 
BRANCH  13  14
ATOM     14  C   LIG    1       -2.410   1.082  -1.704  0.00  0.00    +0.050 C 
BRANCH  14  16
ATOM     15  C   LIG    1       -0.449   1.812  -2.962  0.00  0.00    +0.040 C 
ATOM     16  C   LIG    1       -1.141   1.882  -1.853  0.00  0.00    -0.050 C 
ENDBRANCH  14  16
ENDBRANCH  13  14
ENDBRANCH  11  13
ENDBRANCH   1  11
TORSDOF 5
ENDMDL
MODEL       85
REMARK  Name = ZINC000126789164
REMARK                            x       y       z     vdW  Elec       q    Type
REMARK                         _______ _______ _______ _____ _____    ______ ____
ROOT
ATOM      1  N   LIG    1       -3.754  -1.601  -1.393  0.00  0.00    -0.510 N 
ATOM      2  H   LIG    1       -3.684  -1.206  -2.319  0.00  0.00    +0.430 HD
ATOM      3  H   LIG    1       -3.723  -0.861  -0.708  0.00  0.00    +0.420 HD
ENDROOT
BRANCH   1   4
ATOM      4  C   LIG    1       -5.022  -2.332  -1.266  0.00  0.00    +0.160 C 
ATOM      5  C   LIG    1       -5.186  -2.824   0.173  0.00  0.00    +0.040 C 
ATOM      6  C   LIG    1       -6.507  -3.584   0.305  0.00  0.00    +0.040 C 
ATOM      7  C   LIG    1       -7.668  -2.655  -0.051  0.00  0.00    +0.020 C 
ATOM      8  C   LIG    1       -7.505  -2.162  -1.490  0.00  0.00    +0.000 C 
ATOM      9  C   LIG    1       -7.501  -3.361  -2.442  0.00  0.00    +0.030 C 
ATOM     10  C   LIG    1       -6.184  -1.402  -1.622  0.00  0.00    +0.040 C 
ENDBRANCH   1   4
BRANCH   1  11
ATOM     11  C   LIG    1       -2.633  -2.524  -1.168  0.00  0.00    +0.160 C 
ATOM     12  C   LIG    1       -2.607  -3.575  -2.279  0.00  0.00    +0.090 C 
BRANCH  11  13
ATOM     13  C   LIG    1       -1.319  -1.741  -1.176  0.00  0.00    +0.060 C 
BRANCH  13  14
ATOM     14  C   LIG    1       -1.293  -0.775   0.010  0.00  0.00    +0.050 C 
BRANCH  14  16
ATOM     15  C   LIG    1       -0.016   1.306   0.009  0.00  0.00    +0.040 C 
ATOM     16  C   LIG    1        0.002  -0.004   0.002  0.00  0.00    -0.050 C 
ENDBRANCH  14  16
ENDBRANCH  13  14
ENDBRANCH  11  13
ENDBRANCH   1  11
TORSDOF 5
ENDMDL
MODEL       86
REMARK  Name = ZINC000126789409
REMARK                            x       y       z     vdW  Elec       q    Type
REMARK                         _______ _______ _______ _____ _____    ______ ____
ROOT
ATOM      1  N   LIG    1       -3.726  -1.545  -1.416  0.00  0.00    -0.510 N 
ATOM      2  H   LIG    1       -2.982  -2.225  -1.359  0.00  0.00    +0.430 HD
ATOM      3  H   LIG    1       -3.658  -1.044  -2.289  0.00  0.00    +0.420 HD
ENDROOT
BRANCH   1   4
ATOM      4  C   LIG    1       -5.023  -2.231  -1.345  0.00  0.00    +0.160 C 
ATOM      5  C   LIG    1       -5.082  -3.323  -2.415  0.00  0.00    +0.040 C 
ATOM      6  C   LIG    1       -6.433  -4.037  -2.341  0.00  0.00    +0.040 C 
ATOM      7  C   LIG    1       -7.557  -3.028  -2.580  0.00  0.00    +0.020 C 
ATOM      8  C   LIG    1       -7.498  -1.936  -1.510  0.00  0.00    +0.000 C 
ATOM      9  C   LIG    1       -7.666  -2.567  -0.127  0.00  0.00    +0.030 C 
ATOM     10  C   LIG    1       -6.147  -1.221  -1.584  0.00  0.00    +0.040 C 
ENDBRANCH   1   4
BRANCH   1  11
ATOM     11  C   LIG    1       -3.611  -0.599  -0.298  0.00  0.00    +0.160 C 
ATOM     12  C   LIG    1       -3.576  -1.371   1.022  0.00  0.00    +0.090 C 
BRANCH  11  13
ATOM     13  C   LIG    1       -2.322   0.213  -0.448  0.00  0.00    +0.060 C 
BRANCH  13  14
ATOM     14  C   LIG    1       -2.409   1.080  -1.705  0.00  0.00    +0.050 C 
BRANCH  14  16
ATOM     15  C   LIG    1       -0.447   1.809  -2.961  0.00  0.00    +0.040 C 
ATOM     16  C   LIG    1       -1.140   1.880  -1.852  0.00  0.00    -0.050 C 
ENDBRANCH  14  16
ENDBRANCH  13  14
ENDBRANCH  11  13
ENDBRANCH   1  11
TORSDOF 5
ENDMDL
MODEL       87
REMARK  Name = ZINC000126857390
REMARK                            x       y       z     vdW  Elec       q    Type
REMARK                         _______ _______ _______ _____ _____    ______ ____
ROOT
ATOM      1  N   LIG    1        2.273  -3.176  -0.026  0.00  0.00    -0.510 N 
ATOM      2  H   LIG    1        2.233  -2.531  -0.801  0.00  0.00    +0.420 HD
ATOM      3  H   LIG    1        1.358  -3.570   0.131  0.00  0.00    +0.420 HD
ENDROOT
BRANCH   1   4
ATOM      4  C   LIG    1        3.224  -4.252  -0.334  0.00  0.00    +0.170 C 
ATOM      5  C   LIG    1        3.093  -5.386   0.704  0.00  0.00    +0.050 C 
ATOM      6  C   LIG    1        3.300  -6.681  -0.120  0.00  0.00    +0.040 C 
ATOM      7  C   LIG    1        2.576  -6.358  -1.451  0.00  0.00    +0.050 C 
ATOM      8  C   LIG    1        2.897  -4.869  -1.705  0.00  0.00    -0.080 C 
ATOM      9  C   LIG    1        4.102  -4.744  -2.639  0.00  0.00    +0.060 C 
ATOM     10  C   LIG    1        1.682  -4.169  -2.318  0.00  0.00    +0.040 C 
ENDBRANCH   1   4
BRANCH   1  11
ATOM     11  C   LIG    1        2.713  -2.463   1.181  0.00  0.00    +0.170 C 
ATOM     12  C   LIG    1        2.584  -3.388   2.393  0.00  0.00    +0.080 C 
BRANCH  11  13
ATOM     13  C   LIG    1        1.839  -1.224   1.389  0.00  0.00    +0.060 C 
BRANCH  13  14
ATOM     14  C   LIG    1        2.063  -0.244   0.236  0.00  0.00    +0.040 C 
BRANCH  14  16
ATOM     15  C   LIG    1        1.748   2.168   0.456  0.00  0.00    +0.050 C 
ATOM     16  C   LIG    1        1.203   0.977   0.441  0.00  0.00    -0.070 C 
ENDBRANCH  14  16
ENDBRANCH  13  14
ENDBRANCH  11  13
ENDBRANCH   1  11
TORSDOF 5
ENDMDL
MODEL       88
REMARK  Name = ZINC000126868229
REMARK                            x       y       z     vdW  Elec       q    Type
REMARK                         _______ _______ _______ _____ _____    ______ ____
ROOT
ATOM      1  N   LIG    1        2.901  -3.671  -0.384  0.00  0.00    -0.510 N 
ATOM      2  H   LIG    1        2.789  -3.230  -1.285  0.00  0.00    +0.420 HD
ATOM      3  H   LIG    1        2.380  -4.535  -0.366  0.00  0.00    +0.420 HD
ENDROOT
BRANCH   1   4
ATOM      4  C   LIG    1        2.399  -2.774   0.666  0.00  0.00    +0.160 C 
ATOM      5  C   LIG    1        2.545  -3.453   2.029  0.00  0.00    +0.090 C 
BRANCH   4   6
ATOM      6  C   LIG    1        0.924  -2.461   0.407  0.00  0.00    +0.060 C 
BRANCH   6   7
ATOM      7  C   LIG    1        0.791  -1.672  -0.897  0.00  0.00    +0.040 C 
BRANCH   7   9
ATOM      8  C   LIG    1       -1.045  -0.124  -1.339  0.00  0.00    +0.050 C 
ATOM      9  C   LIG    1       -0.661  -1.363  -1.152  0.00  0.00    -0.070 C 
ENDBRANCH   7   9
ENDBRANCH   6   7
ENDBRANCH   4   6
ENDBRANCH   1   4
BRANCH   1  10
ATOM     10  C   LIG    1        4.323  -3.953  -0.149  0.00  0.00    +0.160 C 
BRANCH  10  11
ATOM     11  C   LIG    1        5.133  -2.666  -0.324  0.00  0.00    +0.040 C 
ATOM     12  C   LIG    1        5.236  -1.941   1.019  0.00  0.00    +0.030 C 
ENDBRANCH  10  11
BRANCH  10  13
ATOM     13  C   LIG    1        4.808  -5.001  -1.152  0.00  0.00    +0.050 C 
BRANCH  13  14
ATOM     14  C   LIG    1        4.086  -6.325  -0.895  0.00  0.00    -0.000 C 
ATOM     15  C   LIG    1        4.571  -7.374  -1.898  0.00  0.00    +0.030 C 
ENDBRANCH  13  14
ENDBRANCH  10  13
ENDBRANCH   1  10
TORSDOF 8
ENDMDL
MODEL       89
REMARK  Name = ZINC000126856638
REMARK                            x       y       z     vdW  Elec       q    Type
REMARK                         _______ _______ _______ _____ _____    ______ ____
ROOT
ATOM      1  N   LIG    1        3.555  -1.281   1.445  0.00  0.00    -0.510 N 
ATOM      2  H   LIG    1        3.299  -1.068   2.397  0.00  0.00    +0.420 HD
ATOM      3  H   LIG    1        3.405  -0.468   0.867  0.00  0.00    +0.420 HD
ENDROOT
BRANCH   1   4
ATOM      4  C   LIG    1        4.972  -1.664   1.393  0.00  0.00    +0.170 C 
ATOM      5  C   LIG    1        5.273  -2.726   2.471  0.00  0.00    +0.050 C 
ATOM      6  C   LIG    1        6.691  -2.362   2.977  0.00  0.00    +0.040 C 
ATOM      7  C   LIG    1        6.668  -0.814   2.975  0.00  0.00    +0.050 C 
ATOM      8  C   LIG    1        5.859  -0.448   1.712  0.00  0.00    -0.080 C 
ATOM      9  C   LIG    1        4.987   0.779   1.985  0.00  0.00    +0.040 C 
ATOM     10  C   LIG    1        6.808  -0.168   0.545  0.00  0.00    +0.060 C 
ENDBRANCH   1   4
BRANCH   1  11
ATOM     11  C   LIG    1        2.729  -2.391   0.952  0.00  0.00    +0.160 C 
ATOM     12  C   LIG    1        2.801  -3.558   1.940  0.00  0.00    +0.080 C 
BRANCH  11  13
ATOM     13  C   LIG    1        1.278  -1.926   0.817  0.00  0.00    +0.070 C 
BRANCH  13  14
ATOM     14  C   LIG    1        1.187  -0.845  -0.261  0.00  0.00    +0.050 C 
BRANCH  14  16
ATOM     15  C   LIG    1       -0.538   0.884  -0.275  0.00  0.00    +0.040 C 
ATOM     16  C   LIG    1       -0.243  -0.387  -0.394  0.00  0.00    -0.050 C 
ENDBRANCH  14  16
ENDBRANCH  13  14
ENDBRANCH  11  13
ENDBRANCH   1  11
TORSDOF 5
ENDMDL
MODEL       90
REMARK  Name = ZINC000126868023
REMARK                            x       y       z     vdW  Elec       q    Type
REMARK                         _______ _______ _______ _____ _____    ______ ____
ROOT
ATOM      1  N   LIG    1        4.113  -1.960   1.894  0.00  0.00    -0.510 N 
ATOM      2  H   LIG    1        4.248  -1.541   2.802  0.00  0.00    +0.420 HD
ATOM      3  H   LIG    1        3.860  -1.246   1.228  0.00  0.00    +0.420 HD
ENDROOT
BRANCH   1   4
ATOM      4  C   LIG    1        3.038  -2.959   1.972  0.00  0.00    +0.160 C 
ATOM      5  C   LIG    1        3.349  -3.957   3.090  0.00  0.00    +0.090 C 
BRANCH   4   6
ATOM      6  C   LIG    1        1.711  -2.258   2.269  0.00  0.00    +0.060 C 
BRANCH   6   7
ATOM      7  C   LIG    1        1.338  -1.353   1.093  0.00  0.00    +0.050 C 
BRANCH   7   9
ATOM      8  C   LIG    1       -0.046   0.644   1.333  0.00  0.00    +0.040 C 
ATOM      9  C   LIG    1        0.031  -0.663   1.385  0.00  0.00    -0.050 C 
ENDBRANCH   7   9
ENDBRANCH   6   7
ENDBRANCH   4   6
ENDBRANCH   1   4
BRANCH   1  10
ATOM     10  C   LIG    1        5.357  -2.612   1.465  0.00  0.00    +0.160 C 
BRANCH  10  11
ATOM     11  C   LIG    1        5.391  -2.691  -0.062  0.00  0.00    +0.050 C 
ATOM     12  C   LIG    1        4.280  -3.622  -0.550  0.00  0.00    +0.040 C 
ENDBRANCH  10  11
BRANCH  10  13
ATOM     13  C   LIG    1        6.556  -1.801   1.961  0.00  0.00    +0.050 C 
BRANCH  13  14
ATOM     14  C   LIG    1        6.591  -1.827   3.490  0.00  0.00    -0.010 C 
ATOM     15  C   LIG    1        7.790  -1.015   3.986  0.00  0.00    +0.040 C 
ENDBRANCH  13  14
ENDBRANCH  10  13
ENDBRANCH   1  10
TORSDOF 8
ENDMDL
MODEL       91
REMARK  Name = ZINC000126867808
REMARK                            x       y       z     vdW  Elec       q    Type
REMARK                         _______ _______ _______ _____ _____    ______ ____
ROOT
ATOM      1  N   LIG    1        3.661  -1.389   1.257  0.00  0.00    -0.510 N 
ATOM      2  H   LIG    1        3.622  -0.829   2.095  0.00  0.00    +0.420 HD
ATOM      3  H   LIG    1        3.630  -0.786   0.448  0.00  0.00    +0.420 HD
ENDROOT
BRANCH   1   4
ATOM      4  C   LIG    1        2.514  -2.307   1.228  0.00  0.00    +0.150 C 
ATOM      5  C   LIG    1        2.470  -3.109   2.530  0.00  0.00    +0.090 C 
BRANCH   4   6
ATOM      6  C   LIG    1        1.221  -1.503   1.080  0.00  0.00    +0.060 C 
BRANCH   6   7
ATOM      7  C   LIG    1        1.210  -0.799  -0.279  0.00  0.00    +0.050 C 
BRANCH   7   9
ATOM      8  C   LIG    1       -0.011   1.273  -0.698  0.00  0.00    +0.040 C 
ATOM      9  C   LIG    1       -0.063  -0.007  -0.424  0.00  0.00    -0.050 C 
ENDBRANCH   7   9
ENDBRANCH   6   7
ENDBRANCH   4   6
ENDBRANCH   1   4
BRANCH   1  10
ATOM     10  C   LIG    1        4.909  -2.164   1.242  0.00  0.00    +0.160 C 
BRANCH  10  11
ATOM     11  C   LIG    1        6.010  -1.371   1.949  0.00  0.00    +0.050 C 
ATOM     12  C   LIG    1        5.662  -1.226   3.432  0.00  0.00    +0.030 C 
ENDBRANCH  10  11
BRANCH  10  13
ATOM     13  C   LIG    1        5.324  -2.434  -0.205  0.00  0.00    +0.060 C 
BRANCH  13  14
ATOM     14  C   LIG    1        4.296  -3.353  -0.868  0.00  0.00    +0.000 C 
ATOM     15  C   LIG    1        4.748  -3.680  -2.293  0.00  0.00    +0.030 C 
ENDBRANCH  13  14
ENDBRANCH  10  13
ENDBRANCH   1  10
TORSDOF 8
ENDMDL
MODEL       92
REMARK  Name = ZINC000126868471
REMARK                            x       y       z     vdW  Elec       q    Type
REMARK                         _______ _______ _______ _____ _____    ______ ____
ROOT
ATOM      1  N   LIG    1        2.703  -3.537  -0.340  0.00  0.00    -0.510 N 
ATOM      2  H   LIG    1        2.713  -3.126  -1.262  0.00  0.00    +0.420 HD
ATOM      3  H   LIG    1        1.955  -4.211  -0.280  0.00  0.00    +0.420 HD
ENDROOT
BRANCH   1   4
ATOM      4  C   LIG    1        2.496  -2.484   0.663  0.00  0.00    +0.160 C 
ATOM      5  C   LIG    1        2.429  -3.113   2.056  0.00  0.00    +0.080 C 
BRANCH   4   6
ATOM      6  C   LIG    1        1.185  -1.752   0.370  0.00  0.00    +0.060 C 
BRANCH   6   7
ATOM      7  C   LIG    1        1.298  -1.019  -0.968  0.00  0.00    +0.040 C 
BRANCH   7   9
ATOM      8  C   LIG    1        0.016   0.989  -1.502  0.00  0.00    +0.050 C 
ATOM      9  C   LIG    1        0.007  -0.297  -1.256  0.00  0.00    -0.070 C 
ENDBRANCH   7   9
ENDBRANCH   6   7
ENDBRANCH   4   6
ENDBRANCH   1   4
BRANCH   1  10
ATOM     10  C   LIG    1        3.986  -4.207  -0.089  0.00  0.00    +0.160 C 
BRANCH  10  11
ATOM     11  C   LIG    1        4.155  -5.370  -1.069  0.00  0.00    +0.050 C 
ATOM     12  C   LIG    1        3.061  -6.410  -0.820  0.00  0.00    +0.020 C 
ENDBRANCH  10  11
BRANCH  10  13
ATOM     13  C   LIG    1        5.129  -3.208  -0.281  0.00  0.00    +0.050 C 
BRANCH  13  14
ATOM     14  C   LIG    1        5.402  -2.485   1.039  0.00  0.00    +0.000 C 
ATOM     15  C   LIG    1        6.457  -1.400   0.818  0.00  0.00    +0.030 C 
ENDBRANCH  13  14
ENDBRANCH  10  13
ENDBRANCH   1  10
TORSDOF 8
ENDMDL
MODEL       93
REMARK  Name = ZINC000126857164
REMARK                            x       y       z     vdW  Elec       q    Type
REMARK                         _______ _______ _______ _____ _____    ______ ____
ROOT
ATOM      1  N   LIG    1        3.800  -1.514   1.380  0.00  0.00    -0.510 N 
ATOM      2  H   LIG    1        3.720  -1.132   2.310  0.00  0.00    +0.420 HD
ATOM      3  H   LIG    1        3.749  -0.767   0.704  0.00  0.00    +0.420 HD
ENDROOT
BRANCH   1   4
ATOM      4  C   LIG    1        5.088  -2.208   1.245  0.00  0.00    +0.170 C 
ATOM      5  C   LIG    1        5.303  -2.644  -0.219  0.00  0.00    +0.050 C 
ATOM      6  C   LIG    1        6.820  -2.440  -0.457  0.00  0.00    +0.050 C 
ATOM      7  C   LIG    1        7.117  -1.139   0.328  0.00  0.00    +0.050 C 
ATOM      8  C   LIG    1        6.242  -1.252   1.594  0.00  0.00    -0.080 C 
ATOM      9  C   LIG    1        7.064  -1.821   2.752  0.00  0.00    +0.060 C 
ATOM     10  C   LIG    1        5.686   0.123   1.972  0.00  0.00    +0.040 C 
ENDBRANCH   1   4
BRANCH   1  11
ATOM     11  C   LIG    1        2.705  -2.464   1.145  0.00  0.00    +0.160 C 
ATOM     12  C   LIG    1        2.708  -3.528   2.244  0.00  0.00    +0.090 C 
BRANCH  11  13
ATOM     13  C   LIG    1        1.370  -1.717   1.161  0.00  0.00    +0.070 C 
BRANCH  13  14
ATOM     14  C   LIG    1        1.317  -0.740  -0.015  0.00  0.00    +0.050 C 
BRANCH  14  16
ATOM     15  C   LIG    1       -0.016   1.306   0.009  0.00  0.00    +0.040 C 
ATOM     16  C   LIG    1        0.002  -0.004   0.002  0.00  0.00    -0.050 C 
ENDBRANCH  14  16
ENDBRANCH  13  14
ENDBRANCH  11  13
ENDBRANCH   1  11
TORSDOF 5
ENDMDL
MODEL       94
REMARK  Name = ZINC000126856909
REMARK                            x       y       z     vdW  Elec       q    Type
REMARK                         _______ _______ _______ _____ _____    ______ ____
ROOT
ATOM      1  N   LIG    1        2.783  -3.301  -0.060  0.00  0.00    -0.510 N 
ATOM      2  H   LIG    1        2.631  -2.729  -0.877  0.00  0.00    +0.420 HD
ATOM      3  H   LIG    1        2.075  -4.019  -0.017  0.00  0.00    +0.420 HD
ENDROOT
BRANCH   1   4
ATOM      4  C   LIG    1        4.110  -3.925  -0.138  0.00  0.00    +0.170 C 
ATOM      5  C   LIG    1        5.187  -2.848  -0.383  0.00  0.00    +0.050 C 
ATOM      6  C   LIG    1        6.199  -3.531  -1.336  0.00  0.00    +0.050 C 
ATOM      7  C   LIG    1        5.282  -4.362  -2.269  0.00  0.00    +0.050 C 
ATOM      8  C   LIG    1        4.170  -4.888  -1.336  0.00  0.00    -0.080 C 
ATOM      9  C   LIG    1        2.829  -4.895  -2.071  0.00  0.00    +0.040 C 
ATOM     10  C   LIG    1        4.513  -6.301  -0.858  0.00  0.00    +0.060 C 
ENDBRANCH   1   4
BRANCH   1  11
ATOM     11  C   LIG    1        2.705  -2.464   1.145  0.00  0.00    +0.160 C 
ATOM     12  C   LIG    1        2.810  -3.349   2.388  0.00  0.00    +0.090 C 
BRANCH  11  13
ATOM     13  C   LIG    1        1.370  -1.717   1.161  0.00  0.00    +0.060 C 
BRANCH  13  14
ATOM     14  C   LIG    1        1.317  -0.740  -0.015  0.00  0.00    +0.040 C 
BRANCH  14  16
ATOM     15  C   LIG    1       -0.016   1.306   0.009  0.00  0.00    +0.050 C 
ATOM     16  C   LIG    1        0.002  -0.004   0.002  0.00  0.00    -0.070 C 
ENDBRANCH  14  16
ENDBRANCH  13  14
ENDBRANCH  11  13
ENDBRANCH   1  11
TORSDOF 5
ENDMDL
MODEL       95
REMARK  Name = ZINC000126880232
REMARK                            x       y       z     vdW  Elec       q    Type
REMARK                         _______ _______ _______ _____ _____    ______ ____
ROOT
ATOM      1  N   LIG    1       -3.767  -1.470  -1.480  0.00  0.00    -0.510 N 
ATOM      2  H   LIG    1       -3.026  -2.146  -1.380  0.00  0.00    +0.430 HD
ATOM      3  H   LIG    1       -3.711  -1.042  -2.393  0.00  0.00    +0.420 HD
ENDROOT
BRANCH   1   4
ATOM      4  C   LIG    1       -3.630  -0.436  -0.446  0.00  0.00    +0.160 C 
ATOM      5  C   LIG    1       -3.578  -1.097   0.933  0.00  0.00    +0.090 C 
BRANCH   4   6
ATOM      6  C   LIG    1       -2.340   0.353  -0.681  0.00  0.00    +0.060 C 
BRANCH   6   7
ATOM      7  C   LIG    1       -2.443   1.115  -2.004  0.00  0.00    +0.050 C 
BRANCH   7   9
ATOM      8  C   LIG    1       -0.497   1.727  -3.346  0.00  0.00    +0.040 C 
ATOM      9  C   LIG    1       -1.173   1.892  -2.236  0.00  0.00    -0.050 C 
ENDBRANCH   7   9
ENDBRANCH   6   7
ENDBRANCH   4   6
ENDBRANCH   1   4
BRANCH   1  10
ATOM     10  C   LIG    1       -5.066  -2.140  -1.333  0.00  0.00    +0.160 C 
ATOM     11  C   LIG    1       -5.145  -3.318  -2.306  0.00  0.00    +0.090 C 
BRANCH  10  12
ATOM     12  C   LIG    1       -6.190  -1.149  -1.639  0.00  0.00    +0.040 C 
BRANCH  12  13
ATOM     13  C   LIG    1       -7.542  -1.810  -1.365  0.00  0.00    -0.010 C 
ATOM     14  C   LIG    1       -7.678  -2.091   0.133  0.00  0.00    +0.020 C 
BRANCH  13  15
ATOM     15  C   LIG    1       -8.667  -0.875  -1.813  0.00  0.00    +0.020 C 
ATOM     16  C   LIG    1      -10.013  -1.585  -1.655  0.00  0.00    +0.020 C 
ENDBRANCH  13  15
ENDBRANCH  12  13
ENDBRANCH  10  12
ENDBRANCH   1  10
TORSDOF 8
ENDMDL
MODEL       96
REMARK  Name = ZINC000126880029
REMARK                            x       y       z     vdW  Elec       q    Type
REMARK                         _______ _______ _______ _____ _____    ______ ____
ROOT
ATOM      1  N   LIG    1       -3.646  -1.580  -1.554  0.00  0.00    -0.510 N 
ATOM      2  H   LIG    1       -3.519  -1.212  -2.485  0.00  0.00    +0.420 HD
ATOM      3  H   LIG    1       -3.649  -0.821  -0.889  0.00  0.00    +0.420 HD
ENDROOT
BRANCH   1   4
ATOM      4  C   LIG    1       -2.547  -2.503  -1.238  0.00  0.00    +0.160 C 
ATOM      5  C   LIG    1       -1.311  -2.121  -2.054  0.00  0.00    +0.090 C 
BRANCH   4   6
ATOM      6  C   LIG    1       -2.221  -2.415   0.254  0.00  0.00    +0.070 C 
BRANCH   6   7
ATOM      7  C   LIG    1       -3.396  -2.966   1.066  0.00  0.00    +0.040 C 
BRANCH   7   9
ATOM      8  C   LIG    1       -3.786  -2.391   3.406  0.00  0.00    +0.040 C 
ATOM      9  C   LIG    1       -3.026  -2.995   2.527  0.00  0.00    -0.050 C 
ENDBRANCH   7   9
ENDBRANCH   6   7
ENDBRANCH   4   6
ENDBRANCH   1   4
BRANCH   1  10
ATOM     10  C   LIG    1       -4.925  -2.299  -1.482  0.00  0.00    +0.160 C 
ATOM     11  C   LIG    1       -4.943  -3.414  -2.529  0.00  0.00    +0.090 C 
BRANCH  10  12
ATOM     12  C   LIG    1       -6.073  -1.325  -1.754  0.00  0.00    +0.060 C 
BRANCH  12  13
ATOM     13  C   LIG    1       -6.132  -0.281  -0.637  0.00  0.00    -0.040 C 
ATOM     14  C   LIG    1       -6.488  -0.966   0.684  0.00  0.00    +0.020 C 
BRANCH  13  15
ATOM     15  C   LIG    1       -7.198   0.765  -0.972  0.00  0.00    +0.020 C 
ATOM     16  C   LIG    1       -7.171   1.875   0.080  0.00  0.00    +0.010 C 
ENDBRANCH  13  15
ENDBRANCH  12  13
ENDBRANCH  10  12
ENDBRANCH   1  10
TORSDOF 8
ENDMDL
MODEL       97
REMARK  Name = ZINC000126873212
REMARK                            x       y       z     vdW  Elec       q    Type
REMARK                         _______ _______ _______ _____ _____    ______ ____
ROOT
ATOM      1  N   LIG    1        2.783  -3.301  -0.060  0.00  0.00    -0.510 N 
ATOM      2  H   LIG    1        2.631  -2.729  -0.877  0.00  0.00    +0.420 HD
ATOM      3  H   LIG    1        2.075  -4.019  -0.017  0.00  0.00    +0.420 HD
ENDROOT
BRANCH   1   4
ATOM      4  C   LIG    1        2.705  -2.464   1.145  0.00  0.00    +0.160 C 
ATOM      5  C   LIG    1        2.810  -3.349   2.388  0.00  0.00    +0.090 C 
BRANCH   4   6
ATOM      6  C   LIG    1        1.370  -1.717   1.161  0.00  0.00    +0.070 C 
BRANCH   6   7
ATOM      7  C   LIG    1        1.317  -0.740  -0.015  0.00  0.00    +0.040 C 
BRANCH   7   9
ATOM      8  C   LIG    1       -0.016   1.306   0.009  0.00  0.00    +0.050 C 
ATOM      9  C   LIG    1        0.002  -0.004   0.002  0.00  0.00    -0.060 C 
ENDBRANCH   7   9
ENDBRANCH   6   7
ENDBRANCH   4   6
ENDBRANCH   1   4
BRANCH   1  10
ATOM     10  C   LIG    1        4.110  -3.925  -0.138  0.00  0.00    +0.270 C 
BRANCH  10  11
ATOM     11  C   LIG    1        4.191  -4.796  -1.393  0.00  0.00    -0.090 C 
ATOM     12  C   LIG    1        4.033  -3.925  -2.651  0.00  0.00    +0.010 C 
ATOM     13  C   LIG    1        5.332  -4.088  -3.466  0.00  0.00    +0.020 C 
ATOM     14  C   LIG    1        5.904  -5.451  -3.002  0.00  0.00    +0.020 C 
ATOM     15  C   LIG    1        3.101  -5.870  -1.356  0.00  0.00    +0.050 C 
ATOM     16  C   LIG    1        5.582  -5.458  -1.487  0.00  0.00    +0.050 C 
ENDBRANCH  10  11
ENDBRANCH   1  10
TORSDOF 6
ENDMDL
MODEL       98
REMARK  Name = ZINC000126880583
REMARK                            x       y       z     vdW  Elec       q    Type
REMARK                         _______ _______ _______ _____ _____    ______ ____
ROOT
ATOM      1  N   LIG    1       -3.754  -1.601  -1.393  0.00  0.00    -0.510 N 
ATOM      2  H   LIG    1       -3.684  -1.206  -2.319  0.00  0.00    +0.420 HD
ATOM      3  H   LIG    1       -3.723  -0.861  -0.708  0.00  0.00    +0.420 HD
ENDROOT
BRANCH   1   4
ATOM      4  C   LIG    1       -2.633  -2.524  -1.168  0.00  0.00    +0.160 C 
ATOM      5  C   LIG    1       -2.607  -3.575  -2.279  0.00  0.00    +0.090 C 
BRANCH   4   6
ATOM      6  C   LIG    1       -1.319  -1.741  -1.176  0.00  0.00    +0.060 C 
BRANCH   6   7
ATOM      7  C   LIG    1       -1.293  -0.775   0.010  0.00  0.00    +0.050 C 
BRANCH   7   9
ATOM      8  C   LIG    1       -0.016   1.306   0.009  0.00  0.00    +0.040 C 
ATOM      9  C   LIG    1        0.002  -0.004   0.002  0.00  0.00    -0.050 C 
ENDBRANCH   7   9
ENDBRANCH   6   7
ENDBRANCH   4   6
ENDBRANCH   1   4
BRANCH   1  10
ATOM     10  C   LIG    1       -5.022  -2.332  -1.266  0.00  0.00    +0.160 C 
ATOM     11  C   LIG    1       -5.186  -2.824   0.173  0.00  0.00    +0.090 C 
BRANCH  10  12
ATOM     12  C   LIG    1       -6.184  -1.402  -1.622  0.00  0.00    +0.060 C 
BRANCH  12  13
ATOM     13  C   LIG    1       -6.089  -1.009  -3.098  0.00  0.00    -0.040 C 
ATOM     14  C   LIG    1       -6.283  -2.251  -3.970  0.00  0.00    +0.030 C 
BRANCH  13  15
ATOM     15  C   LIG    1       -7.176   0.018  -3.423  0.00  0.00    +0.020 C 
ATOM     16  C   LIG    1       -7.004   0.503  -4.864  0.00  0.00    +0.010 C 
ENDBRANCH  13  15
ENDBRANCH  12  13
ENDBRANCH  10  12
ENDBRANCH   1  10
TORSDOF 8
ENDMDL
MODEL       99
REMARK  Name = ZINC000126880434
REMARK                            x       y       z     vdW  Elec       q    Type
REMARK                         _______ _______ _______ _____ _____    ______ ____
ROOT
ATOM      1  N   LIG    1       -3.759  -1.583  -1.391  0.00  0.00    -0.510 N 
ATOM      2  H   LIG    1       -3.736  -1.271  -2.350  0.00  0.00    +0.430 HD
ATOM      3  H   LIG    1       -3.680  -0.787  -0.776  0.00  0.00    +0.420 HD
ENDROOT
BRANCH   1   4
ATOM      4  C   LIG    1       -2.639  -2.502  -1.149  0.00  0.00    +0.160 C 
ATOM      5  C   LIG    1       -2.689  -3.646  -2.164  0.00  0.00    +0.090 C 
BRANCH   4   6
ATOM      6  C   LIG    1       -1.317  -1.746  -1.296  0.00  0.00    +0.060 C 
BRANCH   6   7
ATOM      7  C   LIG    1       -1.213  -0.683  -0.201  0.00  0.00    +0.050 C 
BRANCH   7   9
ATOM      8  C   LIG    1        0.089   1.367  -0.452  0.00  0.00    +0.040 C 
ATOM      9  C   LIG    1        0.089   0.061  -0.346  0.00  0.00    -0.050 C 
ENDBRANCH   7   9
ENDBRANCH   6   7
ENDBRANCH   4   6
ENDBRANCH   1   4
BRANCH   1  10
ATOM     10  C   LIG    1       -5.028  -2.277  -1.133  0.00  0.00    +0.150 C 
ATOM     11  C   LIG    1       -5.119  -2.638   0.351  0.00  0.00    +0.090 C 
BRANCH  10  12
ATOM     12  C   LIG    1       -6.195  -1.363  -1.509  0.00  0.00    +0.040 C 
BRANCH  12  13
ATOM     13  C   LIG    1       -7.511  -2.131  -1.368  0.00  0.00    -0.010 C 
ATOM     14  C   LIG    1       -7.558  -3.254  -2.406  0.00  0.00    +0.020 C 
BRANCH  13  15
ATOM     15  C   LIG    1       -8.685  -1.177  -1.595  0.00  0.00    +0.020 C 
ATOM     16  C   LIG    1      -10.000  -1.916  -1.332  0.00  0.00    +0.020 C 
ENDBRANCH  13  15
ENDBRANCH  12  13
ENDBRANCH  10  12
ENDBRANCH   1  10
TORSDOF 8
ENDMDL
MODEL      100
REMARK  Name = ZINC000126873016
REMARK                            x       y       z     vdW  Elec       q    Type
REMARK                         _______ _______ _______ _____ _____    ______ ____
ROOT
ATOM      1  N   LIG    1        3.800  -1.514   1.380  0.00  0.00    -0.510 N 
ATOM      2  H   LIG    1        3.720  -1.132   2.310  0.00  0.00    +0.420 HD
ATOM      3  H   LIG    1        3.749  -0.767   0.704  0.00  0.00    +0.420 HD
ENDROOT
BRANCH   1   4
ATOM      4  C   LIG    1        2.705  -2.464   1.145  0.00  0.00    +0.160 C 
ATOM      5  C   LIG    1        2.708  -3.528   2.244  0.00  0.00    +0.090 C 
BRANCH   4   6
ATOM      6  C   LIG    1        1.370  -1.717   1.161  0.00  0.00    +0.070 C 
BRANCH   6   7
ATOM      7  C   LIG    1        1.317  -0.740  -0.015  0.00  0.00    +0.050 C 
BRANCH   7   9
ATOM      8  C   LIG    1       -0.016   1.306   0.009  0.00  0.00    +0.040 C 
ATOM      9  C   LIG    1        0.002  -0.004   0.002  0.00  0.00    -0.050 C 
ENDBRANCH   7   9
ENDBRANCH   6   7
ENDBRANCH   4   6
ENDBRANCH   1   4
BRANCH   1  10
ATOM     10  C   LIG    1        5.088  -2.208   1.245  0.00  0.00    +0.270 C 
BRANCH  10  11
ATOM     11  C   LIG    1        6.229  -1.219   1.490  0.00  0.00    -0.090 C 
ATOM     12  C   LIG    1        6.160  -0.681   2.930  0.00  0.00    +0.010 C 
ATOM     13  C   LIG    1        7.480  -1.089   3.617  0.00  0.00    +0.020 C 
ATOM     14  C   LIG    1        8.473  -1.285   2.444  0.00  0.00    +0.020 C 
ATOM     15  C   LIG    1        6.142  -0.062   0.493  0.00  0.00    +0.050 C 
ATOM     16  C   LIG    1        7.588  -1.935   1.352  0.00  0.00    +0.050 C 
ENDBRANCH  10  11
ENDBRANCH   1  10
TORSDOF 6
ENDMDL
MODEL      101
REMARK  Name = ZINC000682075775
REMARK                            x       y       z     vdW  Elec       q    Type
REMARK                         _______ _______ _______ _____ _____    ______ ____
ROOT
ATOM      1  N   LIG    1        3.957  -5.278   3.117  0.00  0.00    -0.390 N 
ATOM      2  C   LIG    1        3.348  -6.610   3.004  0.00  0.00    +0.310 C 
ATOM      3  H   LIG    1        3.677  -4.853   3.989  0.00  0.00    +0.420 HD
ENDROOT
BRANCH   1   4
ATOM      4  C   LIG    1        5.420  -5.404   3.082  0.00  0.00    +0.170 C 
ATOM      5  C   LIG    1        6.056  -4.027   3.286  0.00  0.00    +0.080 C 
BRANCH   4   6
ATOM      6  C   LIG    1        5.878  -6.347   4.196  0.00  0.00    -0.010 C 
ATOM      7  C   LIG    1        5.471  -5.770   5.553  0.00  0.00    +0.040 C 
ATOM      8  C   LIG    1        7.400  -6.499   4.142  0.00  0.00    +0.070 C 
ENDBRANCH   4   6
ENDBRANCH   1   4
BRANCH   1   9
ATOM      9  C   LIG    1        3.511  -4.438   1.997  0.00  0.00    +0.240 C 
BRANCH   9  10
ATOM     10  C   LIG    1        2.003  -4.204   2.105  0.00  0.00    +0.030 C 
BRANCH  10  11
ATOM     11  C   LIG    1        1.538  -3.330   0.939  0.00  0.00    +0.020 C 
BRANCH  11  12
ATOM     12  C   LIG    1        0.029  -3.096   1.047  0.00  0.00    +0.020 C 
BRANCH  12  13
ATOM     13  C   LIG    1       -0.436  -2.222  -0.119  0.00  0.00    +0.050 C 
BRANCH  13  15
ATOM     14  C   LIG    1       -2.395  -0.770   0.000  0.00  0.00    +0.020 C 
ATOM     15  C   LIG    1       -1.921  -1.991  -0.013  0.00  0.00    -0.060 C 
ENDBRANCH  13  15
ENDBRANCH  12  13
ENDBRANCH  11  12
ENDBRANCH  10  11
ENDBRANCH   9  10
ENDBRANCH   1   9
TORSDOF 8
ENDMDL
MODEL      102
REMARK  Name = ZINC000682075764
REMARK                            x       y       z     vdW  Elec       q    Type
REMARK                         _______ _______ _______ _____ _____    ______ ____
ROOT
ATOM      1  N   LIG    1        4.138  -5.178   3.661  0.00  0.00    -0.390 N 
ATOM      2  C   LIG    1        3.045  -6.139   3.467  0.00  0.00    +0.310 C 
ATOM      3  H   LIG    1        4.115  -4.828   4.607  0.00  0.00    +0.420 HD
ENDROOT
BRANCH   1   4
ATOM      4  C   LIG    1        5.425  -5.844   3.417  0.00  0.00    +0.170 C 
ATOM      5  C   LIG    1        5.570  -7.035   4.366  0.00  0.00    +0.080 C 
BRANCH   4   6
ATOM      6  C   LIG    1        6.566  -4.854   3.662  0.00  0.00    -0.020 C 
ATOM      7  C   LIG    1        7.905  -5.546   3.400  0.00  0.00    +0.070 C 
ATOM      8  C   LIG    1        6.517  -4.369   5.112  0.00  0.00    +0.040 C 
ENDBRANCH   4   6
ENDBRANCH   1   4
BRANCH   1   9
ATOM      9  C   LIG    1        3.979  -4.060   2.721  0.00  0.00    +0.240 C 
BRANCH   9  10
ATOM     10  C   LIG    1        2.707  -3.283   3.062  0.00  0.00    +0.030 C 
BRANCH  10  11
ATOM     11  C   LIG    1        2.541  -2.119   2.083  0.00  0.00    +0.020 C 
BRANCH  11  12
ATOM     12  C   LIG    1        1.268  -1.342   2.425  0.00  0.00    +0.020 C 
BRANCH  12  13
ATOM     13  C   LIG    1        1.103  -0.178   1.446  0.00  0.00    +0.050 C 
BRANCH  13  15
ATOM     14  C   LIG    1       -0.091   1.877   2.006  0.00  0.00    +0.020 C 
ATOM     15  C   LIG    1       -0.151   0.587   1.783  0.00  0.00    -0.060 C 
ENDBRANCH  13  15
ENDBRANCH  12  13
ENDBRANCH  11  12
ENDBRANCH  10  11
ENDBRANCH   9  10
ENDBRANCH   1   9
TORSDOF 8
ENDMDL
MODEL      103
REMARK  Name = ZINC000225645447
REMARK                            x       y       z     vdW  Elec       q    Type
REMARK                         _______ _______ _______ _____ _____    ______ ____
ROOT
ATOM      1  N   LIG    1        2.755  -3.402   2.274  0.00  0.00    -0.510 N 
ATOM      2  H   LIG    1        1.998  -4.065   2.195  0.00  0.00    +0.430 HD
ATOM      3  H   LIG    1        2.666  -2.892   3.140  0.00  0.00    +0.420 HD
ENDROOT
BRANCH   1   4
ATOM      4  C   LIG    1        4.037  -4.120   2.258  0.00  0.00    +0.160 C 
ATOM      5  C   LIG    1        5.178  -3.130   2.503  0.00  0.00    +0.040 C 
ATOM      6  C   LIG    1        6.513  -3.877   2.486  0.00  0.00    +0.030 C 
ATOM      7  C   LIG    1        6.516  -4.941   3.585  0.00  0.00    +0.020 C 
ATOM      8  C   LIG    1        5.375  -5.931   3.340  0.00  0.00    +0.040 C 
ATOM      9  C   LIG    1        4.040  -5.184   3.357  0.00  0.00    +0.040 C 
ENDBRANCH   1   4
BRANCH   1  10
ATOM     10  C   LIG    1        2.705  -2.464   1.145  0.00  0.00    +0.250 C 
BRANCH  10  11
ATOM     11  C   LIG    1        1.370  -1.717   1.161  0.00  0.00    -0.080 C 
ATOM     12  C   LIG    1        0.222  -2.722   1.041  0.00  0.00    +0.040 C 
ATOM     13  C   LIG    1        1.235  -0.943   2.474  0.00  0.00    +0.050 C 
BRANCH  11  14
ATOM     14  C   LIG    1        1.317  -0.740  -0.015  0.00  0.00    +0.080 C 
BRANCH  14  16
ATOM     15  C   LIG    1       -0.016   1.306   0.009  0.00  0.00    +0.030 C 
ATOM     16  C   LIG    1        0.002  -0.004   0.002  0.00  0.00    -0.060 C 
ENDBRANCH  14  16
ENDBRANCH  11  14
ENDBRANCH  10  11
ENDBRANCH   1  10
TORSDOF 5
ENDMDL
MODEL      104
REMARK  Name = ZINC000129421326
REMARK                            x       y       z     vdW  Elec       q    Type
REMARK                         _______ _______ _______ _____ _____    ______ ____
ROOT
ATOM      1  N   LIG    1       -0.289  -2.743  -1.122  0.00  0.00    -0.510 N 
ATOM      2  H   LIG    1       -1.045  -2.083  -1.229  0.00  0.00    +0.420 HD
ATOM      3  H   LIG    1       -0.474  -3.340  -0.330  0.00  0.00    +0.420 HD
ENDROOT
BRANCH   1   4
ATOM      4  C   LIG    1        0.968  -2.016  -0.904  0.00  0.00    +0.170 C 
ATOM      5  C   LIG    1        1.182  -1.015  -2.042  0.00  0.00    +0.090 C 
BRANCH   4   6
ATOM      6  C   LIG    1        0.900  -1.266   0.428  0.00  0.00    +0.090 C 
BRANCH   6   8
ATOM      7  C   LIG    1        1.685  -2.218   2.535  0.00  0.00    +0.090 C 
ATOM      8  C   LIG    1        0.813  -2.259   1.559  0.00  0.00    -0.110 C 
ENDBRANCH   6   8
ENDBRANCH   4   6
ENDBRANCH   1   4
BRANCH   1   9
ATOM      9  C   LIG    1       -0.178  -3.561  -2.337  0.00  0.00    +0.160 C 
ATOM     10  C   LIG    1       -1.536  -4.192  -2.653  0.00  0.00    +0.090 C 
BRANCH   9  11
ATOM     11  C   LIG    1        0.858  -4.665  -2.114  0.00  0.00    -0.020 C 
ATOM     12  C   LIG    1        0.360  -5.620  -1.027  0.00  0.00    +0.000 C 
ATOM     13  C   LIG    1        1.396  -6.724  -0.805  0.00  0.00    +0.020 C 
ATOM     14  C   LIG    1        1.603  -7.498  -2.108  0.00  0.00    +0.010 C 
ATOM     15  C   LIG    1        2.101  -6.544  -3.196  0.00  0.00    +0.020 C 
ATOM     16  C   LIG    1        1.065  -5.440  -3.417  0.00  0.00    +0.040 C 
ENDBRANCH   9  11
ENDBRANCH   1   9
TORSDOF 5
ENDMDL
MODEL      105
REMARK  Name = ZINC000129420412
REMARK                            x       y       z     vdW  Elec       q    Type
REMARK                         _______ _______ _______ _____ _____    ______ ____
ROOT
ATOM      1  N   LIG    1        0.242  -2.663   1.006  0.00  0.00    -0.510 N 
ATOM      2  H   LIG    1        1.185  -2.320   0.891  0.00  0.00    +0.420 HD
ATOM      3  H   LIG    1       -0.130  -2.930   0.107  0.00  0.00    +0.420 HD
ENDROOT
BRANCH   1   4
ATOM      4  C   LIG    1       -0.595  -1.606   1.588  0.00  0.00    +0.160 C 
ATOM      5  C   LIG    1        0.051  -1.095   2.877  0.00  0.00    +0.090 C 
BRANCH   4   6
ATOM      6  C   LIG    1       -0.727  -0.453   0.592  0.00  0.00    +0.090 C 
BRANCH   6   8
ATOM      7  C   LIG    1       -2.547  -0.290  -1.028  0.00  0.00    +0.090 C 
ATOM      8  C   LIG    1       -1.474  -0.926  -0.629  0.00  0.00    -0.110 C 
ENDBRANCH   6   8
ENDBRANCH   4   6
ENDBRANCH   1   4
BRANCH   1   9
ATOM      9  C   LIG    1        0.251  -3.829   1.899  0.00  0.00    +0.160 C 
BRANCH   9  10
ATOM     10  C   LIG    1        1.586  -4.565   1.765  0.00  0.00    +0.050 C 
BRANCH  10  11
ATOM     11  C   LIG    1        2.721  -3.653   2.235  0.00  0.00    -0.010 C 
ATOM     12  C   LIG    1        4.064  -4.345   1.994  0.00  0.00    +0.040 C 
ENDBRANCH  10  11
ENDBRANCH   9  10
BRANCH   9  13
ATOM     13  C   LIG    1       -0.892  -4.772   1.518  0.00  0.00    +0.060 C 
BRANCH  13  14
ATOM     14  C   LIG    1       -2.231  -4.061   1.727  0.00  0.00    +0.000 C 
ATOM     15  C   LIG    1       -3.375  -5.030   1.425  0.00  0.00    +0.030 C 
ENDBRANCH  13  14
ENDBRANCH   9  13
ENDBRANCH   1   9
TORSDOF 8
ENDMDL
MODEL      106
REMARK  Name = ZINC000129420839
REMARK                            x       y       z     vdW  Elec       q    Type
REMARK                         _______ _______ _______ _____ _____    ______ ____
ROOT
ATOM      1  N   LIG    1       -0.264  -2.750  -1.010  0.00  0.00    -0.510 N 
ATOM      2  H   LIG    1       -0.466  -3.317  -0.200  0.00  0.00    +0.420 HD
ATOM      3  H   LIG    1        0.625  -2.290  -0.885  0.00  0.00    +0.420 HD
ENDROOT
BRANCH   1   4
ATOM      4  C   LIG    1       -1.319  -1.741  -1.176  0.00  0.00    +0.170 C 
ATOM      5  C   LIG    1       -2.682  -2.433  -1.241  0.00  0.00    +0.090 C 
BRANCH   4   6
ATOM      6  C   LIG    1       -1.293  -0.775   0.010  0.00  0.00    +0.090 C 
BRANCH   6   8
ATOM      7  C   LIG    1       -0.016   1.306   0.009  0.00  0.00    +0.090 C 
ATOM      8  C   LIG    1        0.002  -0.004   0.002  0.00  0.00    -0.110 C 
ENDBRANCH   6   8
ENDBRANCH   4   6
ENDBRANCH   1   4
BRANCH   1   9
ATOM      9  C   LIG    1       -0.210  -3.603  -2.204  0.00  0.00    +0.160 C 
ATOM     10  C   LIG    1        0.218  -2.766  -3.411  0.00  0.00    +0.090 C 
BRANCH   9  11
ATOM     11  C   LIG    1        0.800  -4.730  -1.981  0.00  0.00    -0.020 C 
ATOM     12  C   LIG    1        0.372  -5.568  -0.774  0.00  0.00    +0.010 C 
ATOM     13  C   LIG    1        1.383  -6.694  -0.550  0.00  0.00    +0.020 C 
ATOM     14  C   LIG    1        1.439  -7.583  -1.794  0.00  0.00    +0.010 C 
ATOM     15  C   LIG    1        1.867  -6.746  -3.001  0.00  0.00    +0.020 C 
ATOM     16  C   LIG    1        0.856  -5.619  -3.225  0.00  0.00    +0.040 C 
ENDBRANCH   9  11
ENDBRANCH   1   9
TORSDOF 5
ENDMDL
MODEL      107
REMARK  Name = ZINC000129421539
REMARK                            x       y       z     vdW  Elec       q    Type
REMARK                         _______ _______ _______ _____ _____    ______ ____
ROOT
ATOM      1  N   LIG    1       -1.330  -0.975  -2.430  0.00  0.00    -0.510 N 
ATOM      2  H   LIG    1       -0.545  -0.341  -2.445  0.00  0.00    +0.420 HD
ATOM      3  H   LIG    1       -2.189  -0.449  -2.495  0.00  0.00    +0.420 HD
ENDROOT
BRANCH   1   4
ATOM      4  C   LIG    1       -1.319  -1.741  -1.176  0.00  0.00    +0.170 C 
ATOM      5  C   LIG    1       -2.575  -2.611  -1.099  0.00  0.00    +0.090 C 
BRANCH   4   6
ATOM      6  C   LIG    1       -1.293  -0.775   0.010  0.00  0.00    +0.100 C 
BRANCH   6   8
ATOM      7  C   LIG    1       -0.016   1.306   0.009  0.00  0.00    +0.060 C 
ATOM      8  C   LIG    1        0.002  -0.004   0.002  0.00  0.00    -0.090 C 
ENDBRANCH   6   8
ENDBRANCH   4   6
ENDBRANCH   1   4
BRANCH   1   9
ATOM      9  C   LIG    1       -1.234  -1.899  -3.569  0.00  0.00    +0.160 C 
ATOM     10  C   LIG    1        0.122  -2.606  -3.539  0.00  0.00    +0.080 C 
BRANCH   9  11
ATOM     11  C   LIG    1       -1.372  -1.114  -4.875  0.00  0.00    -0.020 C 
ATOM     12  C   LIG    1       -0.183  -0.162  -5.025  0.00  0.00    +0.010 C 
ATOM     13  C   LIG    1       -0.321   0.623  -6.331  0.00  0.00    +0.020 C 
ATOM     14  C   LIG    1       -0.346  -0.351  -7.511  0.00  0.00    +0.010 C 
ATOM     15  C   LIG    1       -1.534  -1.304  -7.361  0.00  0.00    +0.020 C 
ATOM     16  C   LIG    1       -1.397  -2.088  -6.054  0.00  0.00    +0.040 C 
ENDBRANCH   9  11
ENDBRANCH   1   9
TORSDOF 5
ENDMDL
MODEL      108
REMARK  Name = ZINC000129420622
REMARK                            x       y       z     vdW  Elec       q    Type
REMARK                         _______ _______ _______ _____ _____    ______ ____
ROOT
ATOM      1  N   LIG    1        1.162  -0.657   2.782  0.00  0.00    -0.500 N 
ATOM      2  H   LIG    1        0.357  -0.108   3.044  0.00  0.00    +0.420 HD
ATOM      3  H   LIG    1        2.003  -0.134   2.975  0.00  0.00    +0.420 HD
ENDROOT
BRANCH   1   4
ATOM      4  C   LIG    1        1.098  -0.969   1.348  0.00  0.00    +0.170 C 
ATOM      5  C   LIG    1        2.329  -1.786   0.948  0.00  0.00    +0.080 C 
BRANCH   4   6
ATOM      6  C   LIG    1        1.066   0.332   0.544  0.00  0.00    +0.100 C 
BRANCH   6   8
ATOM      7  C   LIG    1       -0.156   2.318   1.268  0.00  0.00    +0.060 C 
ATOM      8  C   LIG    1       -0.208   1.079   0.847  0.00  0.00    -0.090 C 
ENDBRANCH   6   8
ENDBRANCH   4   6
ENDBRANCH   1   4
BRANCH   1   9
ATOM      9  C   LIG    1        1.175  -1.906   3.555  0.00  0.00    +0.160 C 
BRANCH   9  10
ATOM     10  C   LIG    1       -0.163  -2.628   3.379  0.00  0.00    +0.050 C 
BRANCH  10  11
ATOM     11  C   LIG    1       -0.065  -3.602   2.203  0.00  0.00    +0.010 C 
ATOM     12  C   LIG    1       -1.353  -4.424   2.114  0.00  0.00    +0.030 C 
ENDBRANCH  10  11
ENDBRANCH   9  10
BRANCH   9  13
ATOM     13  C   LIG    1        1.391  -1.588   5.036  0.00  0.00    +0.050 C 
BRANCH  13  14
ATOM     14  C   LIG    1        2.781  -0.978   5.229  0.00  0.00    -0.000 C 
ATOM     15  C   LIG    1        2.998  -0.660   6.710  0.00  0.00    +0.030 C 
ENDBRANCH  13  14
ENDBRANCH   9  13
ENDBRANCH   1   9
TORSDOF 8
ENDMDL
MODEL      109
REMARK  Name = ZINC000129421079
REMARK                            x       y       z     vdW  Elec       q    Type
REMARK                         _______ _______ _______ _____ _____    ______ ____
ROOT
ATOM      1  N   LIG    1       -1.209  -0.960  -2.565  0.00  0.00    -0.500 N 
ATOM      2  H   LIG    1       -0.370  -0.405  -2.490  0.00  0.00    +0.420 HD
ATOM      3  H   LIG    1       -1.988  -0.362  -2.800  0.00  0.00    +0.420 HD
ENDROOT
BRANCH   1   4
ATOM      4  C   LIG    1       -1.473  -1.625  -1.282  0.00  0.00    +0.160 C 
ATOM      5  C   LIG    1       -1.944  -0.591  -0.258  0.00  0.00    +0.090 C 
BRANCH   4   6
ATOM      6  C   LIG    1       -0.191  -2.293  -0.781  0.00  0.00    +0.100 C 
BRANCH   6   8
ATOM      7  C   LIG    1        1.349  -3.538  -2.208  0.00  0.00    +0.050 C 
ATOM      8  C   LIG    1        0.154  -3.454  -1.677  0.00  0.00    -0.060 C 
ENDBRANCH   6   8
ENDBRANCH   4   6
ENDBRANCH   1   4
BRANCH   1   9
ATOM      9  C   LIG    1       -1.034  -1.972  -3.615  0.00  0.00    +0.150 C 
ATOM     10  C   LIG    1       -2.326  -2.778  -3.767  0.00  0.00    +0.090 C 
BRANCH   9  11
ATOM     11  C   LIG    1       -0.706  -1.281  -4.940  0.00  0.00    -0.010 C 
ATOM     12  C   LIG    1        0.586  -0.475  -4.788  0.00  0.00    +0.000 C 
ATOM     13  C   LIG    1        0.914   0.216  -6.113  0.00  0.00    +0.020 C 
ATOM     14  C   LIG    1        1.097  -0.838  -7.207  0.00  0.00    +0.010 C 
ATOM     15  C   LIG    1       -0.195  -1.645  -7.359  0.00  0.00    +0.020 C 
ATOM     16  C   LIG    1       -0.524  -2.336  -6.034  0.00  0.00    +0.040 C 
ENDBRANCH   9  11
ENDBRANCH   1   9
TORSDOF 5
ENDMDL
MODEL      110
REMARK  Name = ZINC000129941089
REMARK                            x       y       z     vdW  Elec       q    Type
REMARK                         _______ _______ _______ _____ _____    ______ ____
ROOT
ATOM      1  N   LIG    1        1.361  -0.966   2.424  0.00  0.00    -0.510 N 
ATOM      2  H   LIG    1        0.559  -0.353   2.445  0.00  0.00    +0.420 HD
ATOM      3  H   LIG    1        2.204  -0.417   2.494  0.00  0.00    +0.420 HD
ENDROOT
BRANCH   1   4
ATOM      4  C   LIG    1        1.370  -1.717   1.161  0.00  0.00    +0.170 C 
ATOM      5  C   LIG    1        2.649  -2.552   1.074  0.00  0.00    +0.090 C 
BRANCH   4   6
ATOM      6  C   LIG    1        1.317  -0.740  -0.015  0.00  0.00    +0.100 C 
BRANCH   6   8
ATOM      7  C   LIG    1       -0.016   1.306   0.009  0.00  0.00    +0.060 C 
ATOM      8  C   LIG    1        0.002  -0.004   0.002  0.00  0.00    -0.090 C 
ENDBRANCH   6   8
ENDBRANCH   4   6
ENDBRANCH   1   4
BRANCH   1   9
ATOM      9  C   LIG    1        1.290  -1.904   3.552  0.00  0.00    +0.260 C 
BRANCH   9  10
ATOM     10  C   LIG    1        1.281  -1.121   4.866  0.00  0.00    -0.010 C 
ATOM     11  C   LIG    1        0.013  -0.317   4.967  0.00  0.00    +0.000 C 
ATOM     12  C   LIG    1        0.221   1.024   5.696  0.00  0.00    +0.010 C 
ATOM     13  C   LIG    1        1.129   0.896   6.934  0.00  0.00    +0.010 C 
ATOM     14  C   LIG    1        0.832  -0.339   7.741  0.00  0.00    +0.020 C 
ATOM     15  C   LIG    1        1.782  -1.464   7.283  0.00  0.00    +0.000 C 
ATOM     16  C   LIG    1        1.333  -2.103   6.054  0.00  0.00    +0.040 C 
ENDBRANCH   9  10
ENDBRANCH   1   9
TORSDOF 5
ENDMDL
MODEL      111
REMARK  Name = ZINC000129940894
REMARK                            x       y       z     vdW  Elec       q    Type
REMARK                         _______ _______ _______ _____ _____    ______ ____
ROOT
ATOM      1  N   LIG    1        0.343  -2.753   0.984  0.00  0.00    -0.510 N 
ATOM      2  H   LIG    1        0.560  -3.305   0.168  0.00  0.00    +0.420 HD
ATOM      3  H   LIG    1       -0.558  -2.315   0.864  0.00  0.00    +0.430 HD
ENDROOT
BRANCH   1   4
ATOM      4  C   LIG    1        1.370  -1.717   1.161  0.00  0.00    +0.170 C 
ATOM      5  C   LIG    1        2.751  -2.373   1.218  0.00  0.00    +0.090 C 
BRANCH   4   6
ATOM      6  C   LIG    1        1.317  -0.740  -0.015  0.00  0.00    +0.090 C 
BRANCH   6   8
ATOM      7  C   LIG    1       -0.016   1.306   0.009  0.00  0.00    +0.090 C 
ATOM      8  C   LIG    1        0.002  -0.004   0.002  0.00  0.00    -0.110 C 
ENDBRANCH   6   8
ENDBRANCH   4   6
ENDBRANCH   1   4
BRANCH   1   9
ATOM      9  C   LIG    1        0.312  -3.620   2.168  0.00  0.00    +0.250 C 
BRANCH   9  10
ATOM     10  C   LIG    1       -0.757  -4.699   1.983  0.00  0.00    -0.010 C 
ATOM     11  C   LIG    1       -0.361  -5.615   0.857  0.00  0.00    +0.000 C 
ATOM     12  C   LIG    1       -1.577  -6.134   0.065  0.00  0.00    +0.010 C 
ATOM     13  C   LIG    1       -2.758  -6.527   0.973  0.00  0.00    +0.010 C 
ATOM     14  C   LIG    1       -2.314  -7.268   2.206  0.00  0.00    +0.020 C 
ATOM     15  C   LIG    1       -2.143  -6.252   3.353  0.00  0.00    +0.000 C 
ATOM     16  C   LIG    1       -0.879  -5.534   3.274  0.00  0.00    +0.040 C 
ENDBRANCH   9  10
ENDBRANCH   1   9
TORSDOF 5
ENDMDL
MODEL      112
REMARK  Name = ZINC000308488388
REMARK                            x       y       z     vdW  Elec       q    Type
REMARK                         _______ _______ _______ _____ _____    ______ ____
ROOT
ATOM      1  C   LIG    1       -4.000  -5.238  -3.533  0.00  0.00    +0.030 C 
ENDROOT
BRANCH   1   2
ATOM      2  C   LIG    1       -3.974  -4.272  -2.346  0.00  0.00    +0.020 C 
BRANCH   2   3
ATOM      3  C   LIG    1       -2.659  -3.489  -2.355  0.00  0.00    +0.020 C 
BRANCH   3   4
ATOM      4  C   LIG    1       -2.633  -2.524  -1.168  0.00  0.00    +0.000 C 
BRANCH   4   5
ATOM      5  C   LIG    1       -1.319  -1.741  -1.176  0.00  0.00    +0.000 C 
BRANCH   5   6
ATOM      6  C   LIG    1       -1.293  -0.775   0.010  0.00  0.00    +0.040 C 
BRANCH   6   8
ATOM      7  C   LIG    1       -0.016   1.306   0.009  0.00  0.00    +0.010 C 
ATOM      8  C   LIG    1        0.002  -0.004   0.002  0.00  0.00    -0.050 C 
ENDBRANCH   6   8
ENDBRANCH   5   6
ENDBRANCH   4   5
ENDBRANCH   3   4
ENDBRANCH   2   3
ENDBRANCH   1   2
BRANCH   1   9
ATOM      9  C   LIG    1       -5.314  -6.021  -3.525  0.00  0.00    +0.250 C 
BRANCH   9  10
ATOM     10  N   LIG    1       -5.339  -6.947  -4.664  0.00  0.00    -0.510 N 
ATOM     11  H   LIG    1       -4.565  -7.590  -4.592  0.00  0.00    +0.430 HD
ATOM     12  H   LIG    1       -5.264  -6.425  -5.524  0.00  0.00    +0.430 HD
BRANCH  10  13
ATOM     13  C   LIG    1       -6.601  -7.699  -4.656  0.00  0.00    +0.290 C 
BRANCH  13  14
ATOM     14  C   LIG    1       -6.628  -8.665  -5.843  0.00  0.00    -0.090 C 
ATOM     15  C   LIG    1       -6.669 -10.163  -5.534  0.00  0.00    +0.050 C 
ATOM     16  C   LIG    1       -7.913  -9.459  -6.079  0.00  0.00    +0.070 C 
ENDBRANCH  13  14
ENDBRANCH  10  13
ENDBRANCH   9  10
ENDBRANCH   1   9
TORSDOF 10
ENDMDL
MODEL      113
REMARK  Name = ZINC000219269764
REMARK                            x       y       z     vdW  Elec       q    Type
REMARK                         _______ _______ _______ _____ _____    ______ ____
ROOT
ATOM      1  N   LIG    1       -3.754  -1.601  -1.393  0.00  0.00    -0.510 N 
ATOM      2  H   LIG    1       -3.684  -1.206  -2.319  0.00  0.00    +0.420 HD
ATOM      3  H   LIG    1       -3.723  -0.861  -0.708  0.00  0.00    +0.420 HD
ENDROOT
BRANCH   1   4
ATOM      4  C   LIG    1       -2.633  -2.524  -1.168  0.00  0.00    +0.170 C 
ATOM      5  C   LIG    1       -2.607  -3.575  -2.279  0.00  0.00    +0.090 C 
BRANCH   4   6
ATOM      6  C   LIG    1       -1.319  -1.741  -1.176  0.00  0.00    +0.070 C 
BRANCH   6   7
ATOM      7  C   LIG    1       -1.293  -0.775   0.010  0.00  0.00    +0.050 C 
BRANCH   7   9
ATOM      8  C   LIG    1       -0.016   1.306   0.009  0.00  0.00    +0.040 C 
ATOM      9  C   LIG    1        0.002  -0.004   0.002  0.00  0.00    -0.050 C 
ENDBRANCH   7   9
ENDBRANCH   6   7
ENDBRANCH   4   6
ENDBRANCH   1   4
BRANCH   1  10
ATOM     10  C   LIG    1       -5.022  -2.332  -1.266  0.00  0.00    +0.270 C 
BRANCH  10  11
ATOM     11  C   LIG    1       -6.190  -1.371  -1.500  0.00  0.00    -0.080 C 
ATOM     12  C   LIG    1       -6.084  -0.772  -2.905  0.00  0.00    +0.040 C 
ATOM     13  C   LIG    1       -6.142  -0.248  -0.462  0.00  0.00    +0.050 C 
BRANCH  11  14
ATOM     14  C   LIG    1       -7.511  -2.131  -1.368  0.00  0.00    +0.000 C 
ATOM     15  C   LIG    1       -8.678  -1.171  -1.603  0.00  0.00    +0.030 C 
ATOM     16  C   LIG    1       -7.617  -2.730   0.036  0.00  0.00    +0.020 C 
ENDBRANCH  11  14
ENDBRANCH  10  11
ENDBRANCH   1  10
TORSDOF 7
ENDMDL
MODEL      114
REMARK  Name = ZINC000219269717
REMARK                            x       y       z     vdW  Elec       q    Type
REMARK                         _______ _______ _______ _____ _____    ______ ____
ROOT
ATOM      1  N   LIG    1       -2.688  -3.376   0.027  0.00  0.00    -0.510 N 
ATOM      2  H   LIG    1       -2.552  -2.809   0.851  0.00  0.00    +0.420 HD
ATOM      3  H   LIG    1       -1.962  -4.074  -0.024  0.00  0.00    +0.420 HD
ENDROOT
BRANCH   1   4
ATOM      4  C   LIG    1       -2.633  -2.524  -1.168  0.00  0.00    +0.170 C 
ATOM      5  C   LIG    1       -2.714  -3.398  -2.421  0.00  0.00    +0.090 C 
BRANCH   4   6
ATOM      6  C   LIG    1       -1.319  -1.741  -1.176  0.00  0.00    +0.070 C 
BRANCH   6   7
ATOM      7  C   LIG    1       -1.293  -0.775   0.010  0.00  0.00    +0.040 C 
BRANCH   7   9
ATOM      8  C   LIG    1       -0.016   1.306   0.009  0.00  0.00    +0.050 C 
ATOM      9  C   LIG    1        0.002  -0.004   0.002  0.00  0.00    -0.070 C 
ENDBRANCH   7   9
ENDBRANCH   6   7
ENDBRANCH   4   6
ENDBRANCH   1   4
BRANCH   1  10
ATOM     10  C   LIG    1       -3.998  -4.036   0.098  0.00  0.00    +0.260 C 
BRANCH  10  11
ATOM     11  C   LIG    1       -4.056  -4.923   1.343  0.00  0.00    -0.080 C 
ATOM     12  C   LIG    1       -3.849  -4.064   2.592  0.00  0.00    +0.040 C 
ATOM     13  C   LIG    1       -2.954  -5.982   1.266  0.00  0.00    +0.050 C 
BRANCH  11  14
ATOM     14  C   LIG    1       -5.420  -5.611   1.417  0.00  0.00    +0.000 C 
ATOM     15  C   LIG    1       -5.477  -6.499   2.662  0.00  0.00    +0.030 C 
ATOM     16  C   LIG    1       -5.626  -6.471   0.168  0.00  0.00    +0.020 C 
ENDBRANCH  11  14
ENDBRANCH  10  11
ENDBRANCH   1  10
TORSDOF 7
ENDMDL
MODEL      115
REMARK  Name = ZINC000308179651
REMARK                            x       y       z     vdW  Elec       q    Type
REMARK                         _______ _______ _______ _____ _____    ______ ____
ROOT
ATOM      1  N   LIG    1       -3.921  -4.241  -2.347  0.00  0.00    -0.510 N 
ATOM      2  H   LIG    1       -4.696  -3.598  -2.419  0.00  0.00    +0.430 HD
ATOM      3  H   LIG    1       -3.996  -4.763  -1.486  0.00  0.00    +0.430 HD
ENDROOT
BRANCH   1   4
ATOM      4  C   LIG    1       -3.946  -5.168  -3.486  0.00  0.00    +0.170 C 
ATOM      5  C   LIG    1       -3.958  -4.371  -4.792  0.00  0.00    +0.090 C 
BRANCH   4   6
ATOM      6  C   LIG    1       -5.202  -6.038  -3.408  0.00  0.00    +0.050 C 
BRANCH   6   7
ATOM      7  C   LIG    1       -5.131  -6.927  -2.165  0.00  0.00    -0.000 C 
BRANCH   7   8
ATOM      8  C   LIG    1       -6.387  -7.797  -2.087  0.00  0.00    +0.010 C 
ATOM      9  C   LIG    1       -6.316  -8.685  -0.843  0.00  0.00    +0.010 C 
ENDBRANCH   7   8
ENDBRANCH   6   7
ENDBRANCH   4   6
ENDBRANCH   1   4
BRANCH   1  10
ATOM     10  C   LIG    1       -2.659  -3.489  -2.355  0.00  0.00    +0.250 C 
BRANCH  10  11
ATOM     11  C   LIG    1       -2.633  -2.524  -1.168  0.00  0.00    +0.030 C 
BRANCH  11  12
ATOM     12  C   LIG    1       -1.319  -1.741  -1.176  0.00  0.00    +0.050 C 
BRANCH  12  13
ATOM     13  C   LIG    1       -1.293  -0.775   0.010  0.00  0.00    +0.050 C 
BRANCH  13  15
ATOM     14  C   LIG    1       -0.016   1.306   0.009  0.00  0.00    +0.020 C 
ATOM     15  C   LIG    1        0.002  -0.004   0.002  0.00  0.00    -0.060 C 
ENDBRANCH  13  15
ENDBRANCH  12  13
ENDBRANCH  11  12
ENDBRANCH  10  11
ENDBRANCH   1  10
TORSDOF 9
ENDMDL
MODEL      116
REMARK  Name = ZINC000308179652
REMARK                            x       y       z     vdW  Elec       q    Type
REMARK                         _______ _______ _______ _____ _____    ______ ____
ROOT
ATOM      1  N   LIG    1       -3.921  -4.241  -2.347  0.00  0.00    -0.510 N 
ATOM      2  H   LIG    1       -4.696  -3.598  -2.419  0.00  0.00    +0.430 HD
ATOM      3  H   LIG    1       -3.996  -4.763  -1.486  0.00  0.00    +0.430 HD
ENDROOT
BRANCH   1   4
ATOM      4  C   LIG    1       -3.946  -5.168  -3.486  0.00  0.00    +0.170 C 
ATOM      5  C   LIG    1       -2.848  -6.219  -3.313  0.00  0.00    +0.090 C 
BRANCH   4   6
ATOM      6  C   LIG    1       -5.309  -5.860  -3.550  0.00  0.00    +0.050 C 
BRANCH   6   7
ATOM      7  C   LIG    1       -6.394  -4.824  -3.848  0.00  0.00    -0.000 C 
BRANCH   7   8
ATOM      8  C   LIG    1       -7.757  -5.516  -3.912  0.00  0.00    +0.010 C 
ATOM      9  C   LIG    1       -8.842  -4.479  -4.210  0.00  0.00    +0.010 C 
ENDBRANCH   7   8
ENDBRANCH   6   7
ENDBRANCH   4   6
ENDBRANCH   1   4
BRANCH   1  10
ATOM     10  C   LIG    1       -2.659  -3.489  -2.355  0.00  0.00    +0.250 C 
BRANCH  10  11
ATOM     11  C   LIG    1       -2.633  -2.524  -1.168  0.00  0.00    +0.030 C 
BRANCH  11  12
ATOM     12  C   LIG    1       -1.319  -1.741  -1.176  0.00  0.00    +0.050 C 
BRANCH  12  13
ATOM     13  C   LIG    1       -1.293  -0.775   0.010  0.00  0.00    +0.060 C 
BRANCH  13  15
ATOM     14  C   LIG    1       -0.016   1.306   0.009  0.00  0.00    +0.020 C 
ATOM     15  C   LIG    1        0.002  -0.004   0.002  0.00  0.00    -0.060 C 
ENDBRANCH  13  15
ENDBRANCH  12  13
ENDBRANCH  11  12
ENDBRANCH  10  11
ENDBRANCH   1  10
TORSDOF 9
ENDMDL
MODEL      117
REMARK  Name = ZINC000163501851
REMARK                            x       y       z     vdW  Elec       q    Type
REMARK                         _______ _______ _______ _____ _____    ______ ____
ROOT
ATOM      1  N   LIG    1       -0.416  -2.719  -0.903  0.00  0.00    -0.510 N 
ATOM      2  H   LIG    1       -0.686  -3.205  -0.060  0.00  0.00    +0.420 HD
ATOM      3  H   LIG    1        0.485  -2.286  -0.767  0.00  0.00    +0.420 HD
ENDROOT
BRANCH   1   4
ATOM      4  C   LIG    1       -0.337  -3.675  -2.015  0.00  0.00    +0.170 C 
ATOM      5  C   LIG    1       -1.692  -4.361  -2.196  0.00  0.00    +0.040 C 
ATOM      6  C   LIG    1       -1.610  -5.357  -3.354  0.00  0.00    +0.030 C 
ATOM      7  C   LIG    1       -0.543  -6.410  -3.047  0.00  0.00    +0.020 C 
ATOM      8  C   LIG    1        0.813  -5.724  -2.866  0.00  0.00    +0.050 C 
ATOM      9  C   LIG    1        0.731  -4.728  -1.708  0.00  0.00    -0.020 C 
BRANCH   9  10
ATOM     10  C   LIG    1        2.086  -4.042  -1.527  0.00  0.00    +0.000 C 
ATOM     11  C   LIG    1        3.128  -5.077  -1.098  0.00  0.00    +0.040 C 
ENDBRANCH   9  10
ENDBRANCH   1   4
BRANCH   1  12
ATOM     12  C   LIG    1       -1.414  -1.687  -1.214  0.00  0.00    +0.160 C 
ATOM     13  C   LIG    1       -1.617  -0.789   0.007  0.00  0.00    +0.090 C 
BRANCH  12  14
ATOM     14  C   LIG    1       -0.923  -0.843  -2.392  0.00  0.00    +0.090 C 
BRANCH  14  16
ATOM     15  C   LIG    1       -2.217  -0.874  -4.463  0.00  0.00    +0.080 C 
ATOM     16  C   LIG    1       -1.357  -1.484  -3.685  0.00  0.00    -0.100 C 
ENDBRANCH  14  16
ENDBRANCH  12  14
ENDBRANCH   1  12
TORSDOF 5
ENDMDL
MODEL      118
REMARK  Name = ZINC000308188336
REMARK                            x       y       z     vdW  Elec       q    Type
REMARK                         _______ _______ _______ _____ _____    ______ ____
ROOT
ATOM      1  N   LIG    1        2.921  -3.136   2.068  0.00  0.00    -0.510 N 
ATOM      2  H   LIG    1        2.081  -3.695   2.074  0.00  0.00    +0.430 HD
ATOM      3  H   LIG    1        2.945  -2.557   2.894  0.00  0.00    +0.430 HD
ENDROOT
BRANCH   1   4
ATOM      4  C   LIG    1        2.934  -2.284   0.872  0.00  0.00    +0.250 C 
BRANCH   4   5
ATOM      5  C   LIG    1        1.778  -1.285   0.944  0.00  0.00    +0.040 C 
BRANCH   5   6
ATOM      6  C   LIG    1        1.792  -0.398  -0.302  0.00  0.00    +0.070 C 
BRANCH   6   8
ATOM      7  C   LIG    1        0.891   1.871  -0.336  0.00  0.00    +0.030 C 
ATOM      8  C   LIG    1        0.654   0.587  -0.231  0.00  0.00    -0.070 C 
ENDBRANCH   6   8
ENDBRANCH   5   6
ENDBRANCH   4   5
ENDBRANCH   1   4
BRANCH   1   9
ATOM      9  C   LIG    1        4.096  -4.018   2.055  0.00  0.00    +0.170 C 
BRANCH   9  10
ATOM     10  C   LIG    1        3.993  -4.987   0.875  0.00  0.00    +0.040 C 
BRANCH  10  11
ATOM     11  C   LIG    1        5.272  -5.822   0.788  0.00  0.00    +0.030 C 
ATOM     12  C   LIG    1        5.224  -6.698  -0.465  0.00  0.00    +0.030 C 
ENDBRANCH  10  11
ENDBRANCH   9  10
BRANCH   9  13
ATOM     13  C   LIG    1        4.153  -4.811   3.362  0.00  0.00    +0.060 C 
BRANCH  13  14
ATOM     14  C   LIG    1        4.381  -3.850   4.532  0.00  0.00    -0.000 C 
ATOM     15  C   LIG    1        4.439  -4.643   5.839  0.00  0.00    +0.030 C 
ENDBRANCH  13  14
ENDBRANCH   9  13
ENDBRANCH   1   9
TORSDOF 9
ENDMDL
MODEL      119
REMARK  Name = ZINC000308210787
REMARK                            x       y       z     vdW  Elec       q    Type
REMARK                         _______ _______ _______ _____ _____    ______ ____
ROOT
ATOM      1  N   LIG    1        1.383  -0.997   2.579  0.00  0.00    -0.500 N 
ATOM      2  H   LIG    1        0.575  -0.392   2.594  0.00  0.00    +0.420 HD
ATOM      3  H   LIG    1        2.213  -0.455   2.769  0.00  0.00    +0.420 HD
ENDROOT
BRANCH   1   4
ATOM      4  C   LIG    1        1.234  -2.039   3.603  0.00  0.00    +0.150 C 
ATOM      5  C   LIG    1        2.480  -2.928   3.612  0.00  0.00    +0.080 C 
BRANCH   4   6
ATOM      6  C   LIG    1        1.065  -1.385   4.976  0.00  0.00    +0.060 C 
BRANCH   6   7
ATOM      7  C   LIG    1       -0.246  -0.597   5.007  0.00  0.00    +0.000 C 
BRANCH   7   8
ATOM      8  C   LIG    1       -0.416   0.058   6.379  0.00  0.00    +0.010 C 
ATOM      9  C   LIG    1       -1.727   0.846   6.410  0.00  0.00    +0.010 C 
ENDBRANCH   7   8
ENDBRANCH   6   7
ENDBRANCH   4   6
ENDBRANCH   1   4
BRANCH   1  10
ATOM     10  C   LIG    1        1.500  -1.624   1.256  0.00  0.00    +0.160 C 
BRANCH  10  11
ATOM     11  C   LIG    1        1.946  -0.577   0.233  0.00  0.00    +0.050 C 
ATOM     12  C   LIG    1        3.336  -0.059   0.605  0.00  0.00    +0.040 C 
ENDBRANCH  10  11
BRANCH  10  13
ATOM     13  C   LIG    1        0.144  -2.197   0.841  0.00  0.00    +0.100 C 
BRANCH  13  15
ATOM     14  C   LIG    1       -1.345  -3.411   2.348  0.00  0.00    +0.050 C 
ATOM     15  C   LIG    1       -0.195  -3.373   1.722  0.00  0.00    -0.060 C 
ENDBRANCH  13  15
ENDBRANCH  10  13
ENDBRANCH   1  10
TORSDOF 8
ENDMDL
MODEL      120
REMARK  Name = ZINC000308210789
REMARK                            x       y       z     vdW  Elec       q    Type
REMARK                         _______ _______ _______ _____ _____    ______ ____
ROOT
ATOM      1  N   LIG    1        1.480  -0.841   2.404  0.00  0.00    -0.510 N 
ATOM      2  H   LIG    1        0.718  -0.180   2.430  0.00  0.00    +0.420 HD
ATOM      3  H   LIG    1        2.353  -0.345   2.309  0.00  0.00    +0.420 HD
ENDROOT
BRANCH   1   4
ATOM      4  C   LIG    1        1.493  -1.622   3.648  0.00  0.00    +0.160 C 
ATOM      5  C   LIG    1        0.122  -2.269   3.858  0.00  0.00    +0.090 C 
BRANCH   4   6
ATOM      6  C   LIG    1        1.807  -0.699   4.827  0.00  0.00    +0.050 C 
BRANCH   6   7
ATOM      7  C   LIG    1        3.228  -0.149   4.679  0.00  0.00    -0.000 C 
BRANCH   7   8
ATOM      8  C   LIG    1        3.542   0.774   5.857  0.00  0.00    +0.010 C 
ATOM      9  C   LIG    1        4.962   1.324   5.710  0.00  0.00    +0.010 C 
ENDBRANCH   7   8
ENDBRANCH   6   7
ENDBRANCH   4   6
ENDBRANCH   1   4
BRANCH   1  10
ATOM     10  C   LIG    1        1.304  -1.746   1.260  0.00  0.00    +0.160 C 
BRANCH  10  11
ATOM     11  C   LIG    1        2.534  -2.647   1.129  0.00  0.00    +0.030 C 
ATOM     12  C   LIG    1        2.308  -3.658   0.003  0.00  0.00    +0.060 C 
ENDBRANCH  10  11
BRANCH  10  13
ATOM     13  C   LIG    1        1.137  -0.923  -0.020  0.00  0.00    +0.090 C 
BRANCH  13  15
ATOM     14  C   LIG    1       -0.113   1.173  -0.105  0.00  0.00    +0.060 C 
ATOM     15  C   LIG    1       -0.140  -0.127   0.058  0.00  0.00    -0.090 C 
ENDBRANCH  13  15
ENDBRANCH  10  13
ENDBRANCH   1  10
TORSDOF 8
ENDMDL
MODEL      121
REMARK  Name = ZINC000308210788
REMARK                            x       y       z     vdW  Elec       q    Type
REMARK                         _______ _______ _______ _____ _____    ______ ____
ROOT
ATOM      1  N   LIG    1        0.180  -2.733   1.131  0.00  0.00    -0.510 N 
ATOM      2  H   LIG    1        0.265  -3.423   0.400  0.00  0.00    +0.420 HD
ATOM      3  H   LIG    1       -0.618  -2.143   0.946  0.00  0.00    +0.420 HD
ENDROOT
BRANCH   1   4
ATOM      4  C   LIG    1        0.001  -3.409   2.423  0.00  0.00    +0.160 C 
ATOM      5  C   LIG    1       -0.271  -2.367   3.510  0.00  0.00    +0.090 C 
BRANCH   4   6
ATOM      6  C   LIG    1       -1.182  -4.375   2.334  0.00  0.00    +0.050 C 
BRANCH   6   7
ATOM      7  C   LIG    1       -0.857  -5.488   1.337  0.00  0.00    -0.000 C 
BRANCH   7   8
ATOM      8  C   LIG    1       -2.040  -6.454   1.248  0.00  0.00    +0.010 C 
ATOM      9  C   LIG    1       -1.716  -7.568   0.250  0.00  0.00    +0.010 C 
ENDBRANCH   7   8
ENDBRANCH   6   7
ENDBRANCH   4   6
ENDBRANCH   1   4
BRANCH   1  10
ATOM     10  C   LIG    1        1.397  -1.911   1.172  0.00  0.00    +0.170 C 
BRANCH  10  11
ATOM     11  C   LIG    1        2.621  -2.819   1.313  0.00  0.00    +0.030 C 
ATOM     12  C   LIG    1        3.874  -1.960   1.498  0.00  0.00    +0.060 C 
ENDBRANCH  10  11
BRANCH  10  13
ATOM     13  C   LIG    1        1.509  -1.101  -0.121  0.00  0.00    +0.100 C 
BRANCH  13  15
ATOM     14  C   LIG    1        0.612   1.157  -0.362  0.00  0.00    +0.090 C 
ATOM     15  C   LIG    1        0.368  -0.119  -0.199  0.00  0.00    -0.110 C 
ENDBRANCH  13  15
ENDBRANCH  10  13
ENDBRANCH   1  10
TORSDOF 8
ENDMDL
MODEL      122
REMARK  Name = ZINC000308210786
REMARK                            x       y       z     vdW  Elec       q    Type
REMARK                         _______ _______ _______ _____ _____    ______ ____
ROOT
ATOM      1  N   LIG    1        0.316  -2.713   0.643  0.00  0.00    -0.500 N 
ATOM      2  H   LIG    1        0.513  -3.128  -0.256  0.00  0.00    +0.420 HD
ATOM      3  H   LIG    1       -0.551  -2.200   0.594  0.00  0.00    +0.420 HD
ENDROOT
BRANCH   1   4
ATOM      4  C   LIG    1        0.203  -3.772   1.655  0.00  0.00    +0.160 C 
ATOM      5  C   LIG    1        1.514  -4.556   1.722  0.00  0.00    +0.090 C 
BRANCH   4   6
ATOM      6  C   LIG    1       -0.939  -4.718   1.278  0.00  0.00    +0.050 C 
BRANCH   6   7
ATOM      7  C   LIG    1       -2.268  -3.962   1.332  0.00  0.00    -0.000 C 
BRANCH   7   8
ATOM      8  C   LIG    1       -3.409  -4.909   0.954  0.00  0.00    +0.010 C 
ATOM      9  C   LIG    1       -4.738  -4.152   1.008  0.00  0.00    +0.010 C 
ENDBRANCH   7   8
ENDBRANCH   6   7
ENDBRANCH   4   6
ENDBRANCH   1   4
BRANCH   1  10
ATOM     10  C   LIG    1        1.406  -1.800   1.010  0.00  0.00    +0.160 C 
BRANCH  10  11
ATOM     11  C   LIG    1        1.663  -0.824  -0.140  0.00  0.00    +0.050 C 
ATOM     12  C   LIG    1        2.247  -1.584  -1.333  0.00  0.00    +0.030 C 
ENDBRANCH  10  11
BRANCH  10  13
ATOM     13  C   LIG    1        1.014  -1.017   2.265  0.00  0.00    +0.090 C 
BRANCH  13  15
ATOM     14  C   LIG    1        2.305  -1.364   4.308  0.00  0.00    +0.080 C 
ATOM     15  C   LIG    1        1.385  -1.812   3.490  0.00  0.00    -0.100 C 
ENDBRANCH  13  15
ENDBRANCH  10  13
ENDBRANCH   1  10
TORSDOF 8
ENDMDL
MODEL      123
REMARK  Name = ZINC000683780697
REMARK                            x       y       z     vdW  Elec       q    Type
REMARK                         _______ _______ _______ _____ _____    ______ ____
ROOT
ATOM      1  N   LIG    1       -3.999  -5.199  -3.486  0.00  0.00    -0.390 N 
ATOM      2  C   LIG    1       -2.960  -6.235  -3.307  0.00  0.00    +0.250 C 
ATOM      3  C   LIG    1       -3.703  -7.435  -2.667  0.00  0.00    +0.080 C 
ATOM      4  C   LIG    1       -5.074  -7.376  -3.391  0.00  0.00    +0.070 C 
ATOM      5  C   LIG    1       -5.313  -5.864  -3.556  0.00  0.00    +0.160 C 
ATOM      6  H   LIG    1       -3.829  -4.692  -4.341  0.00  0.00    +0.420 HD
ENDROOT
BRANCH   5   7
ATOM      7  C   LIG    1       -5.965  -5.584  -4.912  0.00  0.00    +0.060 C 
ATOM      8  C   LIG    1       -6.279  -4.091  -5.028  0.00  0.00    +0.030 C 
ENDBRANCH   5   7
BRANCH   1   9
ATOM      9  C   LIG    1       -3.974  -4.272  -2.346  0.00  0.00    +0.250 C 
BRANCH   9  10
ATOM     10  C   LIG    1       -2.659  -3.489  -2.355  0.00  0.00    +0.030 C 
BRANCH  10  11
ATOM     11  C   LIG    1       -2.633  -2.524  -1.168  0.00  0.00    +0.020 C 
BRANCH  11  12
ATOM     12  C   LIG    1       -1.319  -1.741  -1.176  0.00  0.00    +0.020 C 
BRANCH  12  13
ATOM     13  C   LIG    1       -1.293  -0.775   0.010  0.00  0.00    +0.050 C 
BRANCH  13  15
ATOM     14  C   LIG    1       -0.016   1.306   0.009  0.00  0.00    +0.020 C 
ATOM     15  C   LIG    1        0.002  -0.004   0.002  0.00  0.00    -0.060 C 
ENDBRANCH  13  15
ENDBRANCH  12  13
ENDBRANCH  11  12
ENDBRANCH  10  11
ENDBRANCH   9  10
ENDBRANCH   1   9
TORSDOF 7
ENDMDL
MODEL      124
REMARK  Name = ZINC000683779638
REMARK                            x       y       z     vdW  Elec       q    Type
REMARK                         _______ _______ _______ _____ _____    ______ ____
ROOT
ATOM      1  N   LIG    1        3.906  -4.842   3.576  0.00  0.00    -0.360 N 
ATOM      2  H   LIG    1        3.396  -4.319   4.272  0.00  0.00    +0.420 HD
ENDROOT
BRANCH   1   3
ATOM      3  C   LIG    1        5.268  -5.103   4.060  0.00  0.00    +0.090 C 
ATOM      4  C   LIG    1        5.766  -4.277   5.248  0.00  0.00    +0.090 C 
ATOM      5  C   LIG    1        5.416  -5.755   5.436  0.00  0.00    +0.100 C 
ENDBRANCH   1   3
BRANCH   1   6
ATOM      6  C   LIG    1        3.223  -6.118   3.325  0.00  0.00    +0.160 C 
ATOM      7  C   LIG    1        3.077  -6.886   4.640  0.00  0.00    +0.080 C 
ATOM      8  C   LIG    1        4.044  -6.950   2.337  0.00  0.00    +0.080 C 
ENDBRANCH   1   6
BRANCH   1   9
ATOM      9  C   LIG    1        3.969  -4.067   2.330  0.00  0.00    +0.250 C 
BRANCH   9  10
ATOM     10  C   LIG    1        2.550  -3.742   1.859  0.00  0.00    +0.020 C 
BRANCH  10  11
ATOM     11  C   LIG    1        2.616  -2.829   0.633  0.00  0.00    +0.020 C 
BRANCH  11  12
ATOM     12  C   LIG    1        1.197  -2.504   0.162  0.00  0.00    +0.020 C 
BRANCH  12  13
ATOM     13  C   LIG    1        1.264  -1.591  -1.064  0.00  0.00    +0.050 C 
BRANCH  13  15
ATOM     14  C   LIG    1       -0.512  -0.023  -1.657  0.00  0.00    +0.020 C 
ATOM     15  C   LIG    1       -0.134  -1.271  -1.528  0.00  0.00    -0.060 C 
ENDBRANCH  13  15
ENDBRANCH  12  13
ENDBRANCH  11  12
ENDBRANCH  10  11
ENDBRANCH   9  10
ENDBRANCH   1   9
TORSDOF 8
ENDMDL
MODEL      125
REMARK  Name = ZINC000683779284
REMARK                            x       y       z     vdW  Elec       q    Type
REMARK                         _______ _______ _______ _____ _____    ______ ____
ROOT
ATOM      1  N   LIG    1       -3.723  -5.301  -3.664  0.00  0.00    -0.380 N 
ATOM      2  H   LIG    1       -3.616  -4.772  -4.517  0.00  0.00    +0.420 HD
ENDROOT
BRANCH   1   3
ATOM      3  C   LIG    1       -2.739  -6.392  -3.638  0.00  0.00    +0.240 C 
ATOM      4  C   LIG    1       -2.891  -7.246  -4.898  0.00  0.00    +0.080 C 
ENDBRANCH   1   3
BRANCH   1   5
ATOM      5  C   LIG    1       -3.505  -4.418  -2.510  0.00  0.00    +0.250 C 
BRANCH   5   6
ATOM      6  C   LIG    1       -2.143  -3.734  -2.641  0.00  0.00    +0.030 C 
BRANCH   6   7
ATOM      7  C   LIG    1       -1.917  -2.815  -1.439  0.00  0.00    +0.020 C 
BRANCH   7   8
ATOM      8  C   LIG    1       -0.555  -2.131  -1.569  0.00  0.00    +0.020 C 
BRANCH   8   9
ATOM      9  C   LIG    1       -0.329  -1.212  -0.367  0.00  0.00    +0.050 C 
BRANCH   9  11
ATOM     10  C   LIG    1        1.097   0.769  -0.452  0.00  0.00    +0.020 C 
ATOM     11  C   LIG    1        1.013  -0.538  -0.496  0.00  0.00    -0.060 C 
ENDBRANCH   9  11
ENDBRANCH   8   9
ENDBRANCH   7   8
ENDBRANCH   6   7
ENDBRANCH   5   6
ENDBRANCH   1   5
BRANCH   1  12
ATOM     12  C   LIG    1       -5.079  -5.863  -3.603  0.00  0.00    +0.290 C 
BRANCH  12  13
ATOM     13  C   LIG    1       -6.088  -4.758  -3.781  0.00  0.00    -0.200 C 
ATOM     14  C   LIG    1       -6.544  -3.955  -2.590  0.00  0.00    +0.090 C 
ATOM     15  C   LIG    1       -6.570  -4.496  -4.971  0.00  0.00    +0.120 C 
ENDBRANCH  12  13
ENDBRANCH   1  12
TORSDOF 9
ENDMDL
MODEL      126
REMARK  Name = ZINC000683779215
REMARK                            x       y       z     vdW  Elec       q    Type
REMARK                         _______ _______ _______ _____ _____    ______ ____
ROOT
ATOM      1  N   LIG    1       -3.999  -5.199  -3.486  0.00  0.00    -0.380 N 
ATOM      2  C   LIG    1       -2.942  -6.205  -3.320  0.00  0.00    +0.240 C 
ATOM      3  C   LIG    1       -2.911  -7.124  -4.543  0.00  0.00    +0.060 C 
ATOM      4  C   LIG    1       -4.266  -7.823  -4.683  0.00  0.00    +0.030 C 
ATOM      5  C   LIG    1       -5.369  -6.764  -4.781  0.00  0.00    +0.060 C 
ATOM      6  C   LIG    1       -5.308  -5.860  -3.548  0.00  0.00    +0.170 C 
ATOM      7  C   LIG    1       -5.516  -6.702  -2.288  0.00  0.00    +0.070 C 
ATOM      8  H   LIG    1       -3.841  -4.685  -4.340  0.00  0.00    +0.420 HD
ENDROOT
BRANCH   1   9
ATOM      9  C   LIG    1       -3.974  -4.272  -2.346  0.00  0.00    +0.250 C 
BRANCH   9  10
ATOM     10  C   LIG    1       -2.659  -3.489  -2.355  0.00  0.00    +0.030 C 
BRANCH  10  11
ATOM     11  C   LIG    1       -2.633  -2.524  -1.168  0.00  0.00    +0.020 C 
BRANCH  11  12
ATOM     12  C   LIG    1       -1.319  -1.741  -1.176  0.00  0.00    +0.020 C 
BRANCH  12  13
ATOM     13  C   LIG    1       -1.293  -0.775   0.010  0.00  0.00    +0.050 C 
BRANCH  13  15
ATOM     14  C   LIG    1       -0.016   1.306   0.009  0.00  0.00    +0.020 C 
ATOM     15  C   LIG    1        0.002  -0.004   0.002  0.00  0.00    -0.060 C 
ENDBRANCH  13  15
ENDBRANCH  12  13
ENDBRANCH  11  12
ENDBRANCH  10  11
ENDBRANCH   9  10
ENDBRANCH   1   9
TORSDOF 6
ENDMDL
MODEL      127
REMARK  Name = ZINC000683780628
REMARK                            x       y       z     vdW  Elec       q    Type
REMARK                         _______ _______ _______ _____ _____    ______ ____
ROOT
ATOM      1  N   LIG    1        4.226  -5.185   3.472  0.00  0.00    -0.360 N 
ATOM      2  H   LIG    1        3.449  -5.826   3.538  0.00  0.00    +0.420 HD
ENDROOT
BRANCH   1   3
ATOM      3  C   LIG    1        4.281  -4.356   4.684  0.00  0.00    +0.090 C 
ATOM      4  C   LIG    1        3.141  -4.505   5.694  0.00  0.00    +0.100 C 
ATOM      5  C   LIG    1        4.527  -5.067   6.016  0.00  0.00    +0.090 C 
ENDBRANCH   1   3
BRANCH   1   6
ATOM      6  C   LIG    1        4.053  -4.323   2.296  0.00  0.00    +0.250 C 
BRANCH   6   7
ATOM      7  C   LIG    1        2.692  -3.626   2.371  0.00  0.00    +0.030 C 
BRANCH   7   8
ATOM      8  C   LIG    1        2.511  -2.728   1.145  0.00  0.00    +0.020 C 
BRANCH   8   9
ATOM      9  C   LIG    1        1.151  -2.031   1.220  0.00  0.00    +0.020 C 
BRANCH   9  10
ATOM     10  C   LIG    1        0.970  -1.133  -0.005  0.00  0.00    +0.050 C 
BRANCH  10  12
ATOM     11  C   LIG    1       -0.441   0.859  -0.002  0.00  0.00    +0.020 C 
ATOM     12  C   LIG    1       -0.369  -0.447   0.069  0.00  0.00    -0.060 C 
ENDBRANCH  10  12
ENDBRANCH   9  10
ENDBRANCH   8   9
ENDBRANCH   7   8
ENDBRANCH   6   7
ENDBRANCH   1   6
BRANCH   1  13
ATOM     13  C   LIG    1        5.477  -5.945   3.342  0.00  0.00    +0.250 C 
BRANCH  13  14
ATOM     14  C   LIG    1        5.364  -6.916   2.165  0.00  0.00    +0.020 C 
ATOM     15  C   LIG    1        6.606  -7.808   2.119  0.00  0.00    +0.060 C 
ENDBRANCH  13  14
ENDBRANCH   1  13
TORSDOF 9
ENDMDL
MODEL      128
REMARK  Name = ZINC000683779216
REMARK                            x       y       z     vdW  Elec       q    Type
REMARK                         _______ _______ _______ _____ _____    ______ ____
ROOT
ATOM      1  N   LIG    1       -3.999  -5.199  -3.486  0.00  0.00    -0.380 N 
ATOM      2  C   LIG    1       -2.942  -6.205  -3.320  0.00  0.00    +0.250 C 
ATOM      3  C   LIG    1       -2.911  -7.124  -4.543  0.00  0.00    +0.050 C 
ATOM      4  C   LIG    1       -4.266  -7.823  -4.683  0.00  0.00    +0.030 C 
ATOM      5  C   LIG    1       -5.369  -6.764  -4.781  0.00  0.00    +0.060 C 
ATOM      6  C   LIG    1       -5.308  -5.860  -3.548  0.00  0.00    +0.160 C 
ATOM      7  C   LIG    1       -6.407  -4.799  -3.640  0.00  0.00    +0.080 C 
ATOM      8  H   LIG    1       -3.841  -4.685  -4.340  0.00  0.00    +0.420 HD
ENDROOT
BRANCH   1   9
ATOM      9  C   LIG    1       -3.974  -4.272  -2.346  0.00  0.00    +0.240 C 
BRANCH   9  10
ATOM     10  C   LIG    1       -2.659  -3.489  -2.355  0.00  0.00    +0.030 C 
BRANCH  10  11
ATOM     11  C   LIG    1       -2.633  -2.524  -1.168  0.00  0.00    +0.020 C 
BRANCH  11  12
ATOM     12  C   LIG    1       -1.319  -1.741  -1.176  0.00  0.00    +0.020 C 
BRANCH  12  13
ATOM     13  C   LIG    1       -1.293  -0.775   0.010  0.00  0.00    +0.050 C 
BRANCH  13  15
ATOM     14  C   LIG    1       -0.016   1.306   0.009  0.00  0.00    +0.020 C 
ATOM     15  C   LIG    1        0.002  -0.004   0.002  0.00  0.00    -0.060 C 
ENDBRANCH  13  15
ENDBRANCH  12  13
ENDBRANCH  11  12
ENDBRANCH  10  11
ENDBRANCH   9  10
ENDBRANCH   1   9
TORSDOF 6
ENDMDL
MODEL      129
REMARK  Name = ZINC000683780752
REMARK                            x       y       z     vdW  Elec       q    Type
REMARK                         _______ _______ _______ _____ _____    ______ ____
ROOT
ATOM      1  N   LIG    1        4.143  -5.127   3.433  0.00  0.00    -0.390 N 
ATOM      2  C   LIG    1        3.132  -6.189   3.243  0.00  0.00    +0.250 C 
ATOM      3  C   LIG    1        3.796  -7.471   3.803  0.00  0.00    +0.080 C 
ATOM      4  C   LIG    1        5.272  -7.277   3.365  0.00  0.00    +0.080 C 
ATOM      5  C   LIG    1        5.475  -5.756   3.496  0.00  0.00    +0.050 C 
ATOM      6  C   LIG    1        6.136  -5.433   4.838  0.00  0.00    +0.100 C 
ATOM      7  C   LIG    1        6.347  -5.247   2.347  0.00  0.00    +0.090 C 
ATOM      8  H   LIG    1        3.959  -4.633   4.294  0.00  0.00    +0.420 HD
ENDROOT
BRANCH   1   9
ATOM      9  C   LIG    1        4.093  -4.188   2.304  0.00  0.00    +0.250 C 
BRANCH   9  10
ATOM     10  C   LIG    1        2.757  -3.441   2.321  0.00  0.00    +0.020 C 
BRANCH  10  11
ATOM     11  C   LIG    1        2.705  -2.464   1.145  0.00  0.00    +0.020 C 
BRANCH  11  12
ATOM     12  C   LIG    1        1.370  -1.717   1.161  0.00  0.00    +0.020 C 
BRANCH  12  13
ATOM     13  C   LIG    1        1.317  -0.740  -0.015  0.00  0.00    +0.050 C 
BRANCH  13  15
ATOM     14  C   LIG    1       -0.016   1.306   0.009  0.00  0.00    +0.020 C 
ATOM     15  C   LIG    1        0.002  -0.004   0.002  0.00  0.00    -0.060 C 
ENDBRANCH  13  15
ENDBRANCH  12  13
ENDBRANCH  11  12
ENDBRANCH  10  11
ENDBRANCH   9  10
ENDBRANCH   1   9
TORSDOF 6
ENDMDL
MODEL      130
REMARK  Name = ZINC000683780696
REMARK                            x       y       z     vdW  Elec       q    Type
REMARK                         _______ _______ _______ _____ _____    ______ ____
ROOT
ATOM      1  N   LIG    1       -4.033  -5.145  -3.529  0.00  0.00    -0.390 N 
ATOM      2  C   LIG    1       -2.877  -6.058  -3.403  0.00  0.00    +0.250 C 
ATOM      3  C   LIG    1       -3.400  -7.428  -3.901  0.00  0.00    +0.080 C 
ATOM      4  C   LIG    1       -4.853  -7.426  -3.359  0.00  0.00    +0.070 C 
ATOM      5  C   LIG    1       -5.269  -5.948  -3.488  0.00  0.00    +0.160 C 
ATOM      6  H   LIG    1       -3.980  -4.648  -4.405  0.00  0.00    +0.420 HD
ENDROOT
BRANCH   5   7
ATOM      7  C   LIG    1       -6.121  -5.540  -2.284  0.00  0.00    +0.040 C 
ATOM      8  C   LIG    1       -7.411  -6.362  -2.270  0.00  0.00    +0.060 C 
ENDBRANCH   5   7
BRANCH   1   9
ATOM      9  C   LIG    1       -4.030  -4.187  -2.415  0.00  0.00    +0.250 C 
BRANCH   9  10
ATOM     10  C   LIG    1       -2.798  -3.286  -2.521  0.00  0.00    +0.030 C 
BRANCH  10  11
ATOM     11  C   LIG    1       -2.794  -2.288  -1.361  0.00  0.00    +0.020 C 
BRANCH  11  12
ATOM     12  C   LIG    1       -1.562  -1.387  -1.468  0.00  0.00    +0.020 C 
BRANCH  12  13
ATOM     13  C   LIG    1       -1.558  -0.389  -0.308  0.00  0.00    +0.050 C 
BRANCH  13  15
ATOM     14  C   LIG    1       -0.485   1.800  -0.435  0.00  0.00    +0.020 C 
ATOM     15  C   LIG    1       -0.345   0.498  -0.413  0.00  0.00    -0.060 C 
ENDBRANCH  13  15
ENDBRANCH  12  13
ENDBRANCH  11  12
ENDBRANCH  10  11
ENDBRANCH   9  10
ENDBRANCH   1   9
TORSDOF 7
ENDMDL
MODEL      131
REMARK  Name = ZINC000683783732
REMARK                            x       y       z     vdW  Elec       q    Type
REMARK                         _______ _______ _______ _____ _____    ______ ____
ROOT
ATOM      1  N   LIG    1       -3.999  -5.199  -3.486  0.00  0.00    -0.380 N 
ATOM      2  C   LIG    1       -2.944  -6.208  -3.319  0.00  0.00    +0.320 C 
ATOM      3  H   LIG    1       -3.841  -4.686  -4.340  0.00  0.00    +0.420 HD
ENDROOT
BRANCH   1   4
ATOM      4  C   LIG    1       -5.307  -5.864  -3.547  0.00  0.00    +0.050 C 
ATOM      5  C   LIG    1       -6.406  -4.813  -3.721  0.00  0.00    +0.090 C 
ATOM      6  C   LIG    1       -5.546  -6.642  -2.252  0.00  0.00    +0.090 C 
BRANCH   4   7
ATOM      7  C   LIG    1       -5.333  -6.829  -4.734  0.00  0.00    +0.040 C 
ATOM      8  C   LIG    1       -6.696  -7.522  -4.798  0.00  0.00    +0.060 C 
ENDBRANCH   4   7
ENDBRANCH   1   4
BRANCH   1   9
ATOM      9  C   LIG    1       -3.974  -4.272  -2.346  0.00  0.00    +0.240 C 
BRANCH   9  10
ATOM     10  C   LIG    1       -2.659  -3.489  -2.355  0.00  0.00    +0.030 C 
BRANCH  10  11
ATOM     11  C   LIG    1       -2.633  -2.524  -1.168  0.00  0.00    +0.020 C 
BRANCH  11  12
ATOM     12  C   LIG    1       -1.319  -1.741  -1.176  0.00  0.00    +0.020 C 
BRANCH  12  13
ATOM     13  C   LIG    1       -1.293  -0.775   0.010  0.00  0.00    +0.050 C 
BRANCH  13  15
ATOM     14  C   LIG    1       -0.016   1.306   0.009  0.00  0.00    +0.020 C 
ATOM     15  C   LIG    1        0.002  -0.004   0.002  0.00  0.00    -0.060 C 
ENDBRANCH  13  15
ENDBRANCH  12  13
ENDBRANCH  11  12
ENDBRANCH  10  11
ENDBRANCH   9  10
ENDBRANCH   1   9
TORSDOF 8
ENDMDL
MODEL      132
REMARK  Name = ZINC000683782204
REMARK                            x       y       z     vdW  Elec       q    Type
REMARK                         _______ _______ _______ _____ _____    ______ ____
ROOT
ATOM      1  N   LIG    1        4.217  -5.387   3.457  0.00  0.00    -0.380 N 
ATOM      2  H   LIG    1        4.102  -5.140   4.428  0.00  0.00    +0.420 HD
ENDROOT
BRANCH   1   3
ATOM      3  C   LIG    1        5.429  -6.202   3.299  0.00  0.00    +0.150 C 
ATOM      4  C   LIG    1        6.628  -5.687   4.112  0.00  0.00    +0.050 C 
ATOM      5  C   LIG    1        6.947  -7.159   4.425  0.00  0.00    +0.070 C 
ATOM      6  C   LIG    1        5.454  -7.449   4.198  0.00  0.00    +0.050 C 
ENDBRANCH   1   3
BRANCH   1   7
ATOM      7  C   LIG    1        3.049  -6.154   3.005  0.00  0.00    +0.250 C 
ATOM      8  C   LIG    1        3.224  -6.530   1.532  0.00  0.00    +0.070 C 
ENDBRANCH   1   7
BRANCH   1   9
ATOM      9  C   LIG    1        4.341  -4.164   2.652  0.00  0.00    +0.250 C 
BRANCH   9  10
ATOM     10  C   LIG    1        3.137  -3.258   2.913  0.00  0.00    +0.030 C 
BRANCH  10  11
ATOM     11  C   LIG    1        3.266  -1.984   2.076  0.00  0.00    +0.020 C 
BRANCH  11  12
ATOM     12  C   LIG    1        2.061  -1.077   2.336  0.00  0.00    +0.020 C 
BRANCH  12  13
ATOM     13  C   LIG    1        2.191   0.196   1.499  0.00  0.00    +0.050 C 
BRANCH  13  15
ATOM     14  C   LIG    1        1.187   2.326   2.145  0.00  0.00    +0.020 C 
ATOM     15  C   LIG    1        1.004   1.089   1.755  0.00  0.00    -0.060 C 
ENDBRANCH  13  15
ENDBRANCH  12  13
ENDBRANCH  11  12
ENDBRANCH  10  11
ENDBRANCH   9  10
ENDBRANCH   1   9
TORSDOF 8
ENDMDL
MODEL      133
REMARK  Name = ZINC000683781667
REMARK                            x       y       z     vdW  Elec       q    Type
REMARK                         _______ _______ _______ _____ _____    ______ ____
ROOT
ATOM      1  N   LIG    1        4.230  -5.194   3.385  0.00  0.00    -0.390 N 
ATOM      2  C   LIG    1        3.323  -6.338   3.113  0.00  0.00    +0.170 C 
ATOM      3  C   LIG    1        3.956  -7.494   3.928  0.00  0.00    +0.080 C 
ATOM      4  C   LIG    1        5.472  -7.247   3.757  0.00  0.00    +0.070 C 
ATOM      5  C   LIG    1        1.908  -6.035   3.610  0.00  0.00    +0.090 C 
ATOM      6  C   LIG    1        5.599  -5.756   3.390  0.00  0.00    +0.170 C 
ATOM      7  C   LIG    1        6.461  -5.035   4.429  0.00  0.00    +0.090 C 
ATOM      8  H   LIG    1        4.018  -4.787   4.284  0.00  0.00    +0.420 HD
ENDROOT
BRANCH   1   9
ATOM      9  C   LIG    1        4.102  -4.183   2.327  0.00  0.00    +0.250 C 
BRANCH   9  10
ATOM     10  C   LIG    1        4.997  -2.986   2.655  0.00  0.00    +0.030 C 
BRANCH  10  11
ATOM     11  C   LIG    1        4.759  -1.876   1.629  0.00  0.00    +0.020 C 
BRANCH  11  12
ATOM     12  C   LIG    1        5.654  -0.679   1.956  0.00  0.00    +0.020 C 
BRANCH  12  13
ATOM     13  C   LIG    1        5.417   0.431   0.930  0.00  0.00    +0.050 C 
BRANCH  13  15
ATOM     14  C   LIG    1        7.109   2.090   0.343  0.00  0.00    +0.020 C 
ATOM     15  C   LIG    1        6.298   1.610   1.253  0.00  0.00    -0.060 C 
ENDBRANCH  13  15
ENDBRANCH  12  13
ENDBRANCH  11  12
ENDBRANCH  10  11
ENDBRANCH   9  10
ENDBRANCH   1   9
TORSDOF 6
ENDMDL
MODEL      134
REMARK  Name = ZINC000683781671
REMARK                            x       y       z     vdW  Elec       q    Type
REMARK                         _______ _______ _______ _____ _____    ______ ____
ROOT
ATOM      1  N   LIG    1        4.347  -5.278   3.286  0.00  0.00    -0.390 N 
ATOM      2  C   LIG    1        3.306  -6.309   3.124  0.00  0.00    +0.160 C 
ATOM      3  C   LIG    1        4.020  -7.677   3.076  0.00  0.00    +0.070 C 
ATOM      4  C   LIG    1        5.371  -7.390   3.783  0.00  0.00    +0.080 C 
ATOM      5  C   LIG    1        2.538  -6.073   1.821  0.00  0.00    +0.080 C 
ATOM      6  C   LIG    1        5.666  -5.946   3.315  0.00  0.00    +0.160 C 
ATOM      7  C   LIG    1        6.595  -5.244   4.307  0.00  0.00    +0.100 C 
ATOM      8  H   LIG    1        4.200  -4.780   4.152  0.00  0.00    +0.420 HD
ENDROOT
BRANCH   1   9
ATOM      9  C   LIG    1        4.293  -4.338   2.159  0.00  0.00    +0.250 C 
BRANCH   9  10
ATOM     10  C   LIG    1        5.301  -3.210   2.386  0.00  0.00    +0.020 C 
BRANCH  10  11
ATOM     11  C   LIG    1        5.152  -2.163   1.280  0.00  0.00    +0.020 C 
BRANCH  11  12
ATOM     12  C   LIG    1        6.160  -1.035   1.507  0.00  0.00    +0.020 C 
BRANCH  12  13
ATOM     13  C   LIG    1        6.011   0.013   0.402  0.00  0.00    +0.050 C 
BRANCH  13  15
ATOM     14  C   LIG    1        7.842   1.454  -0.325  0.00  0.00    +0.020 C 
ATOM     15  C   LIG    1        7.005   1.124   0.626  0.00  0.00    -0.060 C 
ENDBRANCH  13  15
ENDBRANCH  12  13
ENDBRANCH  11  12
ENDBRANCH  10  11
ENDBRANCH   9  10
ENDBRANCH   1   9
TORSDOF 6
ENDMDL
MODEL      135
REMARK  Name = ZINC000683785044
REMARK                            x       y       z     vdW  Elec       q    Type
REMARK                         _______ _______ _______ _____ _____    ______ ____
ROOT
ATOM      1  N   LIG    1        4.354  -4.718   3.488  0.00  0.00    -0.380 N 
ATOM      2  H   LIG    1        4.418  -4.236   4.372  0.00  0.00    +0.420 HD
ENDROOT
BRANCH   1   3
ATOM      3  C   LIG    1        5.614  -5.424   3.223  0.00  0.00    +0.150 C 
ATOM      4  C   LIG    1        5.950  -6.332   4.408  0.00  0.00    +0.080 C 
ATOM      5  C   LIG    1        6.739  -4.405   3.028  0.00  0.00    +0.070 C 
ENDBRANCH   1   3
BRANCH   1   6
ATOM      6  C   LIG    1        3.251  -5.687   3.537  0.00  0.00    +0.160 C 
ATOM      7  C   LIG    1        3.169  -6.297   4.938  0.00  0.00    +0.080 C 
ATOM      8  C   LIG    1        3.500  -6.795   2.512  0.00  0.00    +0.080 C 
ENDBRANCH   1   6
BRANCH   1   9
ATOM      9  C   LIG    1        4.103  -3.744   2.417  0.00  0.00    +0.240 C 
BRANCH   9  10
ATOM     10  C   LIG    1        2.865  -2.914   2.762  0.00  0.00    +0.030 C 
BRANCH  10  11
ATOM     11  C   LIG    1        2.691  -1.804   1.724  0.00  0.00    +0.020 C 
BRANCH  11  12
ATOM     12  C   LIG    1        1.452  -0.974   2.069  0.00  0.00    +0.020 C 
BRANCH  12  13
ATOM     13  C   LIG    1        1.278   0.137   1.031  0.00  0.00    +0.050 C 
BRANCH  13  15
ATOM     14  C   LIG    1        0.160   2.253   1.516  0.00  0.00    +0.020 C 
ATOM     15  C   LIG    1        0.058   0.955   1.371  0.00  0.00    -0.060 C 
ENDBRANCH  13  15
ENDBRANCH  12  13
ENDBRANCH  11  12
ENDBRANCH  10  11
ENDBRANCH   9  10
ENDBRANCH   1   9
TORSDOF 8
ENDMDL
MODEL      136
REMARK  Name = ZINC000683781669
REMARK                            x       y       z     vdW  Elec       q    Type
REMARK                         _______ _______ _______ _____ _____    ______ ____
ROOT
ATOM      1  N   LIG    1        4.143  -5.127   3.433  0.00  0.00    -0.390 N 
ATOM      2  C   LIG    1        3.132  -6.189   3.243  0.00  0.00    +0.160 C 
ATOM      3  C   LIG    1        3.796  -7.471   3.803  0.00  0.00    +0.080 C 
ATOM      4  C   LIG    1        5.272  -7.277   3.365  0.00  0.00    +0.070 C 
ATOM      5  C   LIG    1        1.859  -5.859   4.025  0.00  0.00    +0.090 C 
ATOM      6  C   LIG    1        5.475  -5.756   3.496  0.00  0.00    +0.160 C 
ATOM      7  C   LIG    1        6.350  -5.247   2.349  0.00  0.00    +0.080 C 
ATOM      8  H   LIG    1        3.959  -4.633   4.294  0.00  0.00    +0.420 HD
ENDROOT
BRANCH   1   9
ATOM      9  C   LIG    1        4.093  -4.188   2.304  0.00  0.00    +0.250 C 
BRANCH   9  10
ATOM     10  C   LIG    1        2.757  -3.441   2.321  0.00  0.00    +0.030 C 
BRANCH  10  11
ATOM     11  C   LIG    1        2.705  -2.464   1.145  0.00  0.00    +0.020 C 
BRANCH  11  12
ATOM     12  C   LIG    1        1.370  -1.717   1.161  0.00  0.00    +0.020 C 
BRANCH  12  13
ATOM     13  C   LIG    1        1.317  -0.740  -0.015  0.00  0.00    +0.050 C 
BRANCH  13  15
ATOM     14  C   LIG    1       -0.016   1.306   0.009  0.00  0.00    +0.020 C 
ATOM     15  C   LIG    1        0.002  -0.004   0.002  0.00  0.00    -0.060 C 
ENDBRANCH  13  15
ENDBRANCH  12  13
ENDBRANCH  11  12
ENDBRANCH  10  11
ENDBRANCH   9  10
ENDBRANCH   1   9
TORSDOF 6
ENDMDL
MODEL      137
REMARK  Name = ZINC000235070003
REMARK                            x       y       z     vdW  Elec       q    Type
REMARK                         _______ _______ _______ _____ _____    ______ ____
ROOT
ATOM      1  N   LIG    1        4.143  -5.127   3.433  0.00  0.00    -0.510 N 
ATOM      2  H   LIG    1        3.386  -5.789   3.354  0.00  0.00    +0.430 HD
ATOM      3  H   LIG    1        4.054  -4.616   4.299  0.00  0.00    +0.430 HD
ENDROOT
BRANCH   1   4
ATOM      4  C   LIG    1        5.425  -5.844   3.417  0.00  0.00    +0.170 C 
ATOM      5  C   LIG    1        6.566  -4.854   3.662  0.00  0.00    +0.090 C 
BRANCH   4   6
ATOM      6  C   LIG    1        5.428  -6.908   4.516  0.00  0.00    +0.090 C 
BRANCH   6   7
ATOM      7  C   LIG    1        4.368  -7.966   4.204  0.00  0.00    -0.090 C 
ATOM      8  C   LIG    1        4.851  -9.394   3.940  0.00  0.00    +0.030 C 
ATOM      9  C   LIG    1        4.132  -9.059   5.249  0.00  0.00    +0.030 C 
ENDBRANCH   6   7
ENDBRANCH   4   6
ENDBRANCH   1   4
BRANCH   1  10
ATOM     10  C   LIG    1        4.093  -4.188   2.304  0.00  0.00    +0.250 C 
BRANCH  10  11
ATOM     11  C   LIG    1        2.757  -3.441   2.321  0.00  0.00    +0.030 C 
BRANCH  11  12
ATOM     12  C   LIG    1        2.705  -2.464   1.145  0.00  0.00    +0.020 C 
BRANCH  12  13
ATOM     13  C   LIG    1        1.370  -1.717   1.161  0.00  0.00    +0.020 C 
BRANCH  13  14
ATOM     14  C   LIG    1        1.317  -0.740  -0.015  0.00  0.00    +0.050 C 
BRANCH  14  16
ATOM     15  C   LIG    1       -0.016   1.306   0.009  0.00  0.00    +0.020 C 
ATOM     16  C   LIG    1        0.002  -0.004   0.002  0.00  0.00    -0.060 C 
ENDBRANCH  14  16
ENDBRANCH  13  14
ENDBRANCH  12  13
ENDBRANCH  11  12
ENDBRANCH  10  11
ENDBRANCH   1  10
TORSDOF 9
ENDMDL
MODEL      138
REMARK  Name = ZINC000308495767
REMARK                            x       y       z     vdW  Elec       q    Type
REMARK                         _______ _______ _______ _____ _____    ______ ____
ROOT
ATOM      1  C   LIG    1        4.145  -5.166   3.480  0.00  0.00    +0.170 C 
ATOM      2  C   LIG    1        5.526  -5.822   3.537  0.00  0.00    +0.090 C 
ENDROOT
BRANCH   1   3
ATOM      3  N   LIG    1        3.118  -6.201   3.302  0.00  0.00    -0.500 N 
ATOM      4  H   LIG    1        3.335  -6.753   2.486  0.00  0.00    +0.420 HD
ATOM      5  H   LIG    1        2.217  -5.764   3.182  0.00  0.00    +0.420 HD
BRANCH   3   6
ATOM      6  C   LIG    1        3.088  -7.069   4.487  0.00  0.00    +0.150 C 
ATOM      7  C   LIG    1        2.164  -6.554   5.604  0.00  0.00    +0.050 C 
ATOM      8  C   LIG    1        1.740  -8.017   5.819  0.00  0.00    +0.060 C 
ATOM      9  C   LIG    1        2.128  -8.263   4.351  0.00  0.00    +0.050 C 
ENDBRANCH   3   6
ENDBRANCH   1   3
BRANCH   1  10
ATOM     10  C   LIG    1        4.093  -4.188   2.304  0.00  0.00    +0.050 C 
BRANCH  10  11
ATOM     11  C   LIG    1        2.757  -3.441   2.321  0.00  0.00    +0.010 C 
BRANCH  11  12
ATOM     12  C   LIG    1        2.705  -2.464   1.145  0.00  0.00    +0.020 C 
BRANCH  12  13
ATOM     13  C   LIG    1        1.370  -1.717   1.161  0.00  0.00    +0.010 C 
BRANCH  13  14
ATOM     14  C   LIG    1        1.317  -0.740  -0.015  0.00  0.00    +0.040 C 
BRANCH  14  16
ATOM     15  C   LIG    1       -0.016   1.306   0.009  0.00  0.00    +0.020 C 
ATOM     16  C   LIG    1        0.002  -0.004   0.002  0.00  0.00    -0.060 C 
ENDBRANCH  14  16
ENDBRANCH  13  14
ENDBRANCH  12  13
ENDBRANCH  11  12
ENDBRANCH  10  11
ENDBRANCH   1  10
TORSDOF 8
ENDMDL
MODEL      139
REMARK  Name = ZINC000235429421
REMARK                            x       y       z     vdW  Elec       q    Type
REMARK                         _______ _______ _______ _____ _____    ______ ____
ROOT
ATOM      1  N   LIG    1        4.143  -5.127   3.433  0.00  0.00    -0.510 N 
ATOM      2  H   LIG    1        3.386  -5.789   3.354  0.00  0.00    +0.430 HD
ATOM      3  H   LIG    1        4.054  -4.616   4.299  0.00  0.00    +0.430 HD
ENDROOT
BRANCH   1   4
ATOM      4  C   LIG    1        5.425  -5.844   3.417  0.00  0.00    +0.170 C 
ATOM      5  C   LIG    1        5.506  -6.715   2.162  0.00  0.00    +0.090 C 
BRANCH   4   6
ATOM      6  C   LIG    1        5.530  -6.729   4.660  0.00  0.00    +0.090 C 
BRANCH   6   7
ATOM      7  C   LIG    1        5.574  -5.848   5.911  0.00  0.00    -0.090 C 
ATOM      8  C   LIG    1        4.419  -5.976   6.906  0.00  0.00    +0.010 C 
ATOM      9  C   LIG    1        5.797  -6.543   7.256  0.00  0.00    +0.050 C 
ENDBRANCH   6   7
ENDBRANCH   4   6
ENDBRANCH   1   4
BRANCH   1  10
ATOM     10  C   LIG    1        4.093  -4.188   2.304  0.00  0.00    +0.250 C 
BRANCH  10  11
ATOM     11  C   LIG    1        2.757  -3.441   2.321  0.00  0.00    +0.030 C 
BRANCH  11  12
ATOM     12  C   LIG    1        2.705  -2.464   1.145  0.00  0.00    +0.020 C 
BRANCH  12  13
ATOM     13  C   LIG    1        1.370  -1.717   1.161  0.00  0.00    +0.020 C 
BRANCH  13  14
ATOM     14  C   LIG    1        1.317  -0.740  -0.015  0.00  0.00    +0.050 C 
BRANCH  14  16
ATOM     15  C   LIG    1       -0.016   1.306   0.009  0.00  0.00    +0.020 C 
ATOM     16  C   LIG    1        0.002  -0.004   0.002  0.00  0.00    -0.060 C 
ENDBRANCH  14  16
ENDBRANCH  13  14
ENDBRANCH  12  13
ENDBRANCH  11  12
ENDBRANCH  10  11
ENDBRANCH   1  10
TORSDOF 9
ENDMDL
MODEL      140
REMARK  Name = ZINC000308453950
REMARK                            x       y       z     vdW  Elec       q    Type
REMARK                         _______ _______ _______ _____ _____    ______ ____
ROOT
ATOM      1  N   LIG    1       -3.921  -4.241  -2.347  0.00  0.00    -0.510 N 
ATOM      2  H   LIG    1       -4.696  -3.598  -2.419  0.00  0.00    +0.430 HD
ATOM      3  H   LIG    1       -3.996  -4.763  -1.486  0.00  0.00    +0.430 HD
ENDROOT
BRANCH   1   4
ATOM      4  C   LIG    1       -3.946  -5.168  -3.486  0.00  0.00    +0.170 C 
ATOM      5  C   LIG    1       -2.897  -6.290  -3.295  0.00  0.00    +0.050 C 
ATOM      6  C   LIG    1       -3.451  -7.432  -4.183  0.00  0.00    +0.050 C 
ATOM      7  C   LIG    1       -4.979  -7.356  -3.987  0.00  0.00    -0.060 C 
ATOM      8  C   LIG    1       -5.419  -8.346  -2.906  0.00  0.00    +0.040 C 
ATOM      9  C   LIG    1       -5.693  -7.667  -5.304  0.00  0.00    +0.040 C 
ATOM     10  C   LIG    1       -5.295  -5.913  -3.546  0.00  0.00    +0.050 C 
ENDBRANCH   1   4
BRANCH   1  11
ATOM     11  C   LIG    1       -2.659  -3.489  -2.355  0.00  0.00    +0.250 C 
BRANCH  11  12
ATOM     12  C   LIG    1       -2.633  -2.524  -1.168  0.00  0.00    +0.030 C 
BRANCH  12  13
ATOM     13  C   LIG    1       -1.319  -1.741  -1.176  0.00  0.00    +0.050 C 
BRANCH  13  14
ATOM     14  C   LIG    1       -1.293  -0.775   0.010  0.00  0.00    +0.050 C 
BRANCH  14  16
ATOM     15  C   LIG    1       -0.016   1.306   0.009  0.00  0.00    +0.020 C 
ATOM     16  C   LIG    1        0.002  -0.004   0.002  0.00  0.00    -0.060 C 
ENDBRANCH  14  16
ENDBRANCH  13  14
ENDBRANCH  12  13
ENDBRANCH  11  12
ENDBRANCH   1  11
TORSDOF 6
ENDMDL
MODEL      141
REMARK  Name = ZINC000308453949
REMARK                            x       y       z     vdW  Elec       q    Type
REMARK                         _______ _______ _______ _____ _____    ______ ____
ROOT
ATOM      1  N   LIG    1       -3.921  -4.241  -2.347  0.00  0.00    -0.500 N 
ATOM      2  H   LIG    1       -4.696  -3.598  -2.419  0.00  0.00    +0.430 HD
ATOM      3  H   LIG    1       -3.996  -4.763  -1.486  0.00  0.00    +0.430 HD
ENDROOT
BRANCH   1   4
ATOM      4  C   LIG    1       -3.946  -5.168  -3.486  0.00  0.00    +0.160 C 
ATOM      5  C   LIG    1       -4.058  -4.393  -4.822  0.00  0.00    +0.040 C 
ATOM      6  C   LIG    1       -4.674  -5.413  -5.801  0.00  0.00    +0.050 C 
ATOM      7  C   LIG    1       -5.426  -6.446  -4.944  0.00  0.00    -0.060 C 
ATOM      8  C   LIG    1       -4.833  -7.840  -5.163  0.00  0.00    +0.040 C 
ATOM      9  C   LIG    1       -6.912  -6.446  -5.308  0.00  0.00    +0.040 C 
ATOM     10  C   LIG    1       -5.239  -6.021  -3.471  0.00  0.00    +0.050 C 
ENDBRANCH   1   4
BRANCH   1  11
ATOM     11  C   LIG    1       -2.659  -3.489  -2.355  0.00  0.00    +0.250 C 
BRANCH  11  12
ATOM     12  C   LIG    1       -2.633  -2.524  -1.168  0.00  0.00    +0.030 C 
BRANCH  12  13
ATOM     13  C   LIG    1       -1.319  -1.741  -1.176  0.00  0.00    +0.040 C 
BRANCH  13  14
ATOM     14  C   LIG    1       -1.293  -0.775   0.010  0.00  0.00    +0.060 C 
BRANCH  14  16
ATOM     15  C   LIG    1       -0.016   1.306   0.009  0.00  0.00    +0.020 C 
ATOM     16  C   LIG    1        0.002  -0.004   0.002  0.00  0.00    -0.060 C 
ENDBRANCH  14  16
ENDBRANCH  13  14
ENDBRANCH  12  13
ENDBRANCH  11  12
ENDBRANCH   1  11
TORSDOF 6
ENDMDL
MODEL      142
REMARK  Name = ZINC000308461321
REMARK                            x       y       z     vdW  Elec       q    Type
REMARK                         _______ _______ _______ _____ _____    ______ ____
ROOT
ATOM      1  N   LIG    1       -2.658  -3.451  -2.307  0.00  0.00    -0.510 N 
ATOM      2  H   LIG    1       -1.884  -4.093  -2.235  0.00  0.00    +0.430 HD
ATOM      3  H   LIG    1       -2.583  -2.929  -3.167  0.00  0.00    +0.430 HD
ENDROOT
BRANCH   1   4
ATOM      4  C   LIG    1       -3.920  -4.202  -2.299  0.00  0.00    +0.170 C 
ATOM      5  C   LIG    1       -3.978  -5.090  -1.054  0.00  0.00    +0.090 C 
BRANCH   4   6
ATOM      6  C   LIG    1       -4.001  -5.076  -3.553  0.00  0.00    +0.060 C 
BRANCH   6   7
ATOM      7  C   LIG    1       -4.070  -4.184  -4.793  0.00  0.00    +0.020 C 
BRANCH   7   8
ATOM      8  C   LIG    1       -4.151  -5.058  -6.046  0.00  0.00    -0.070 C 
ATOM      9  C   LIG    1       -2.910  -5.949  -6.128  0.00  0.00    +0.030 C 
ATOM     10  C   LIG    1       -4.219  -4.165  -7.287  0.00  0.00    +0.030 C 
ATOM     11  C   LIG    1       -5.404  -5.933  -5.978  0.00  0.00    +0.030 C 
ENDBRANCH   7   8
ENDBRANCH   6   7
ENDBRANCH   4   6
ENDBRANCH   1   4
BRANCH   1  12
ATOM     12  C   LIG    1       -2.633  -2.524  -1.168  0.00  0.00    +0.250 C 
BRANCH  12  13
ATOM     13  C   LIG    1       -1.319  -1.741  -1.176  0.00  0.00    +0.040 C 
BRANCH  13  14
ATOM     14  C   LIG    1       -1.293  -0.775   0.010  0.00  0.00    +0.070 C 
BRANCH  14  16
ATOM     15  C   LIG    1       -0.016   1.306   0.009  0.00  0.00    +0.030 C 
ATOM     16  C   LIG    1        0.002  -0.004   0.002  0.00  0.00    -0.070 C 
ENDBRANCH  14  16
ENDBRANCH  13  14
ENDBRANCH  12  13
ENDBRANCH   1  12
TORSDOF 8
ENDMDL
MODEL      143
REMARK  Name = ZINC000308461322
REMARK                            x       y       z     vdW  Elec       q    Type
REMARK                         _______ _______ _______ _____ _____    ______ ____
ROOT
ATOM      1  N   LIG    1       -2.658  -3.451  -2.307  0.00  0.00    -0.510 N 
ATOM      2  H   LIG    1       -1.884  -4.093  -2.235  0.00  0.00    +0.430 HD
ATOM      3  H   LIG    1       -2.583  -2.929  -3.167  0.00  0.00    +0.430 HD
ENDROOT
BRANCH   1   4
ATOM      4  C   LIG    1       -3.920  -4.202  -2.299  0.00  0.00    +0.170 C 
ATOM      5  C   LIG    1       -5.088  -3.242  -2.534  0.00  0.00    +0.090 C 
BRANCH   4   6
ATOM      6  C   LIG    1       -3.894  -5.254  -3.410  0.00  0.00    +0.060 C 
BRANCH   6   7
ATOM      7  C   LIG    1       -2.806  -6.287  -3.110  0.00  0.00    +0.020 C 
BRANCH   7   8
ATOM      8  C   LIG    1       -2.781  -7.338  -4.221  0.00  0.00    -0.070 C 
ATOM      9  C   LIG    1       -4.140  -8.037  -4.294  0.00  0.00    +0.030 C 
ATOM     10  C   LIG    1       -1.692  -8.371  -3.921  0.00  0.00    +0.030 C 
ATOM     11  C   LIG    1       -2.484  -6.659  -5.559  0.00  0.00    +0.030 C 
ENDBRANCH   7   8
ENDBRANCH   6   7
ENDBRANCH   4   6
ENDBRANCH   1   4
BRANCH   1  12
ATOM     12  C   LIG    1       -2.633  -2.524  -1.168  0.00  0.00    +0.250 C 
BRANCH  12  13
ATOM     13  C   LIG    1       -1.319  -1.741  -1.176  0.00  0.00    +0.040 C 
BRANCH  13  14
ATOM     14  C   LIG    1       -1.293  -0.775   0.010  0.00  0.00    +0.070 C 
BRANCH  14  16
ATOM     15  C   LIG    1       -0.016   1.306   0.009  0.00  0.00    +0.030 C 
ATOM     16  C   LIG    1        0.002  -0.004   0.002  0.00  0.00    -0.070 C 
ENDBRANCH  14  16
ENDBRANCH  13  14
ENDBRANCH  12  13
ENDBRANCH   1  12
TORSDOF 8
ENDMDL
MODEL      144
REMARK  Name = ZINC000308468106
REMARK                            x       y       z     vdW  Elec       q    Type
REMARK                         _______ _______ _______ _____ _____    ______ ____
ROOT
ATOM      1  N   LIG    1       -3.921  -4.241  -2.347  0.00  0.00    -0.510 N 
ATOM      2  H   LIG    1       -4.696  -3.598  -2.419  0.00  0.00    +0.420 HD
ATOM      3  H   LIG    1       -3.996  -4.763  -1.486  0.00  0.00    +0.430 HD
ENDROOT
BRANCH   1   4
ATOM      4  C   LIG    1       -3.946  -5.168  -3.486  0.00  0.00    +0.170 C 
ATOM      5  C   LIG    1       -3.958  -4.371  -4.792  0.00  0.00    +0.040 C 
ATOM      6  C   LIG    1       -3.984  -5.336  -5.979  0.00  0.00    +0.030 C 
ATOM      7  C   LIG    1       -5.240  -6.206  -5.901  0.00  0.00    +0.020 C 
ATOM      8  C   LIG    1       -5.229  -7.003  -4.595  0.00  0.00    +0.060 C 
ATOM      9  C   LIG    1       -5.202  -6.038  -3.408  0.00  0.00    -0.020 C 
ATOM     10  C   LIG    1       -6.444  -5.145  -3.449  0.00  0.00    +0.040 C 
ENDBRANCH   1   4
BRANCH   1  11
ATOM     11  C   LIG    1       -2.659  -3.489  -2.355  0.00  0.00    +0.250 C 
BRANCH  11  12
ATOM     12  C   LIG    1       -2.633  -2.524  -1.168  0.00  0.00    +0.030 C 
BRANCH  12  13
ATOM     13  C   LIG    1       -1.319  -1.741  -1.176  0.00  0.00    +0.040 C 
BRANCH  13  14
ATOM     14  C   LIG    1       -1.293  -0.775   0.010  0.00  0.00    +0.060 C 
BRANCH  14  16
ATOM     15  C   LIG    1       -0.016   1.306   0.009  0.00  0.00    +0.020 C 
ATOM     16  C   LIG    1        0.002  -0.004   0.002  0.00  0.00    -0.060 C 
ENDBRANCH  14  16
ENDBRANCH  13  14
ENDBRANCH  12  13
ENDBRANCH  11  12
ENDBRANCH   1  11
TORSDOF 6
ENDMDL
MODEL      145
REMARK  Name = ZINC000308468104
REMARK                            x       y       z     vdW  Elec       q    Type
REMARK                         _______ _______ _______ _____ _____    ______ ____
ROOT
ATOM      1  N   LIG    1       -3.921  -4.241  -2.347  0.00  0.00    -0.510 N 
ATOM      2  H   LIG    1       -4.696  -3.598  -2.419  0.00  0.00    +0.430 HD
ATOM      3  H   LIG    1       -3.996  -4.763  -1.486  0.00  0.00    +0.420 HD
ENDROOT
BRANCH   1   4
ATOM      4  C   LIG    1       -3.946  -5.168  -3.486  0.00  0.00    +0.170 C 
ATOM      5  C   LIG    1       -2.848  -6.219  -3.313  0.00  0.00    +0.040 C 
ATOM      6  C   LIG    1       -2.874  -7.184  -4.499  0.00  0.00    +0.030 C 
ATOM      7  C   LIG    1       -4.237  -7.877  -4.564  0.00  0.00    +0.020 C 
ATOM      8  C   LIG    1       -5.335  -6.826  -4.737  0.00  0.00    +0.060 C 
ATOM      9  C   LIG    1       -5.309  -5.860  -3.550  0.00  0.00    -0.020 C 
ATOM     10  C   LIG    1       -5.548  -6.638  -2.255  0.00  0.00    +0.040 C 
ENDBRANCH   1   4
BRANCH   1  11
ATOM     11  C   LIG    1       -2.659  -3.489  -2.355  0.00  0.00    +0.250 C 
BRANCH  11  12
ATOM     12  C   LIG    1       -2.633  -2.524  -1.168  0.00  0.00    +0.030 C 
BRANCH  12  13
ATOM     13  C   LIG    1       -1.319  -1.741  -1.176  0.00  0.00    +0.050 C 
BRANCH  13  14
ATOM     14  C   LIG    1       -1.293  -0.775   0.010  0.00  0.00    +0.050 C 
BRANCH  14  16
ATOM     15  C   LIG    1       -0.016   1.306   0.009  0.00  0.00    +0.020 C 
ATOM     16  C   LIG    1        0.002  -0.004   0.002  0.00  0.00    -0.060 C 
ENDBRANCH  14  16
ENDBRANCH  13  14
ENDBRANCH  12  13
ENDBRANCH  11  12
ENDBRANCH   1  11
TORSDOF 6
ENDMDL
MODEL      146
REMARK  Name = ZINC000308468108
REMARK                            x       y       z     vdW  Elec       q    Type
REMARK                         _______ _______ _______ _____ _____    ______ ____
ROOT
ATOM      1  N   LIG    1       -3.921  -4.241  -2.347  0.00  0.00    -0.510 N 
ATOM      2  H   LIG    1       -4.696  -3.598  -2.419  0.00  0.00    +0.430 HD
ATOM      3  H   LIG    1       -3.996  -4.763  -1.486  0.00  0.00    +0.430 HD
ENDROOT
BRANCH   1   4
ATOM      4  C   LIG    1       -3.946  -5.168  -3.486  0.00  0.00    +0.170 C 
ATOM      5  C   LIG    1       -2.848  -6.219  -3.313  0.00  0.00    +0.040 C 
ATOM      6  C   LIG    1       -2.874  -7.184  -4.499  0.00  0.00    +0.030 C 
ATOM      7  C   LIG    1       -4.237  -7.877  -4.564  0.00  0.00    +0.020 C 
ATOM      8  C   LIG    1       -5.335  -6.826  -4.737  0.00  0.00    +0.060 C 
ATOM      9  C   LIG    1       -5.309  -5.860  -3.550  0.00  0.00    -0.020 C 
ATOM     10  C   LIG    1       -6.407  -4.809  -3.724  0.00  0.00    +0.040 C 
ENDBRANCH   1   4
BRANCH   1  11
ATOM     11  C   LIG    1       -2.659  -3.489  -2.355  0.00  0.00    +0.250 C 
BRANCH  11  12
ATOM     12  C   LIG    1       -2.633  -2.524  -1.168  0.00  0.00    +0.030 C 
BRANCH  12  13
ATOM     13  C   LIG    1       -1.319  -1.741  -1.176  0.00  0.00    +0.050 C 
BRANCH  13  14
ATOM     14  C   LIG    1       -1.293  -0.775   0.010  0.00  0.00    +0.060 C 
BRANCH  14  16
ATOM     15  C   LIG    1       -0.016   1.306   0.009  0.00  0.00    +0.020 C 
ATOM     16  C   LIG    1        0.002  -0.004   0.002  0.00  0.00    -0.060 C 
ENDBRANCH  14  16
ENDBRANCH  13  14
ENDBRANCH  12  13
ENDBRANCH  11  12
ENDBRANCH   1  11
TORSDOF 6
ENDMDL
MODEL      147
REMARK  Name = ZINC000308468102
REMARK                            x       y       z     vdW  Elec       q    Type
REMARK                         _______ _______ _______ _____ _____    ______ ____
ROOT
ATOM      1  N   LIG    1       -3.921  -4.241  -2.347  0.00  0.00    -0.510 N 
ATOM      2  H   LIG    1       -4.696  -3.598  -2.419  0.00  0.00    +0.430 HD
ATOM      3  H   LIG    1       -3.996  -4.763  -1.486  0.00  0.00    +0.430 HD
ENDROOT
BRANCH   1   4
ATOM      4  C   LIG    1       -3.946  -5.168  -3.486  0.00  0.00    +0.170 C 
ATOM      5  C   LIG    1       -3.958  -4.371  -4.792  0.00  0.00    +0.040 C 
ATOM      6  C   LIG    1       -3.984  -5.336  -5.979  0.00  0.00    +0.030 C 
ATOM      7  C   LIG    1       -5.240  -6.206  -5.901  0.00  0.00    +0.020 C 
ATOM      8  C   LIG    1       -5.229  -7.003  -4.595  0.00  0.00    +0.060 C 
ATOM      9  C   LIG    1       -5.202  -6.038  -3.408  0.00  0.00    -0.020 C 
ATOM     10  C   LIG    1       -5.191  -6.835  -2.102  0.00  0.00    +0.040 C 
ENDBRANCH   1   4
BRANCH   1  11
ATOM     11  C   LIG    1       -2.659  -3.489  -2.355  0.00  0.00    +0.250 C 
BRANCH  11  12
ATOM     12  C   LIG    1       -2.633  -2.524  -1.168  0.00  0.00    +0.030 C 
BRANCH  12  13
ATOM     13  C   LIG    1       -1.319  -1.741  -1.176  0.00  0.00    +0.050 C 
BRANCH  13  14
ATOM     14  C   LIG    1       -1.293  -0.775   0.010  0.00  0.00    +0.050 C 
BRANCH  14  16
ATOM     15  C   LIG    1       -0.016   1.306   0.009  0.00  0.00    +0.020 C 
ATOM     16  C   LIG    1        0.002  -0.004   0.002  0.00  0.00    -0.060 C 
ENDBRANCH  14  16
ENDBRANCH  13  14
ENDBRANCH  12  13
ENDBRANCH  11  12
ENDBRANCH   1  11
TORSDOF 6
ENDMDL
MODEL      148
REMARK  Name = ZINC000308472268
REMARK                            x       y       z     vdW  Elec       q    Type
REMARK                         _______ _______ _______ _____ _____    ______ ____
ROOT
ATOM      1  N   LIG    1        4.039  -4.159   2.305  0.00  0.00    -0.510 N 
ATOM      2  H   LIG    1        4.796  -3.496   2.384  0.00  0.00    +0.420 HD
ATOM      3  H   LIG    1        4.128  -4.669   1.439  0.00  0.00    +0.430 HD
ENDROOT
BRANCH   1   4
ATOM      4  C   LIG    1        4.090  -5.097   3.434  0.00  0.00    +0.170 C 
ATOM      5  C   LIG    1        3.020  -6.175   3.248  0.00  0.00    +0.090 C 
BRANCH   4   6
ATOM      6  C   LIG    1        5.471  -5.753   3.490  0.00  0.00    +0.060 C 
BRANCH   6   7
ATOM      7  C   LIG    1        6.527  -4.690   3.800  0.00  0.00    -0.050 C 
ATOM      8  C   LIG    1        6.741  -4.454   5.304  0.00  0.00    +0.020 C 
ATOM      9  C   LIG    1        8.244  -4.351   4.995  0.00  0.00    +0.010 C 
ATOM     10  C   LIG    1        7.969  -5.225   3.759  0.00  0.00    +0.030 C 
ENDBRANCH   6   7
ENDBRANCH   4   6
ENDBRANCH   1   4
BRANCH   1  11
ATOM     11  C   LIG    1        2.757  -3.441   2.321  0.00  0.00    +0.250 C 
BRANCH  11  12
ATOM     12  C   LIG    1        2.705  -2.464   1.145  0.00  0.00    +0.030 C 
BRANCH  12  13
ATOM     13  C   LIG    1        1.370  -1.717   1.161  0.00  0.00    +0.050 C 
BRANCH  13  14
ATOM     14  C   LIG    1        1.317  -0.740  -0.015  0.00  0.00    +0.060 C 
BRANCH  14  16
ATOM     15  C   LIG    1       -0.016   1.306   0.009  0.00  0.00    +0.020 C 
ATOM     16  C   LIG    1        0.002  -0.004   0.002  0.00  0.00    -0.060 C 
ENDBRANCH  14  16
ENDBRANCH  13  14
ENDBRANCH  12  13
ENDBRANCH  11  12
ENDBRANCH   1  11
TORSDOF 8
ENDMDL
MODEL      149
REMARK  Name = ZINC000308472266
REMARK                            x       y       z     vdW  Elec       q    Type
REMARK                         _______ _______ _______ _____ _____    ______ ____
ROOT
ATOM      1  N   LIG    1        4.039  -4.159   2.305  0.00  0.00    -0.510 N 
ATOM      2  H   LIG    1        4.796  -3.496   2.384  0.00  0.00    +0.420 HD
ATOM      3  H   LIG    1        4.128  -4.669   1.439  0.00  0.00    +0.420 HD
ENDROOT
BRANCH   1   4
ATOM      4  C   LIG    1        4.090  -5.097   3.434  0.00  0.00    +0.170 C 
ATOM      5  C   LIG    1        4.080  -4.314   4.748  0.00  0.00    +0.090 C 
BRANCH   4   6
ATOM      6  C   LIG    1        5.369  -5.932   3.346  0.00  0.00    +0.060 C 
BRANCH   6   7
ATOM      7  C   LIG    1        5.321  -6.808   2.093  0.00  0.00    -0.040 C 
ATOM      8  C   LIG    1        5.865  -6.113   0.834  0.00  0.00    -0.010 C 
ATOM      9  C   LIG    1        6.521  -7.456   0.471  0.00  0.00    +0.030 C 
ATOM     10  C   LIG    1        6.508  -7.779   1.975  0.00  0.00    +0.040 C 
ENDBRANCH   6   7
ENDBRANCH   4   6
ENDBRANCH   1   4
BRANCH   1  11
ATOM     11  C   LIG    1        2.757  -3.441   2.321  0.00  0.00    +0.250 C 
BRANCH  11  12
ATOM     12  C   LIG    1        2.705  -2.464   1.145  0.00  0.00    +0.030 C 
BRANCH  12  13
ATOM     13  C   LIG    1        1.370  -1.717   1.161  0.00  0.00    +0.050 C 
BRANCH  13  14
ATOM     14  C   LIG    1        1.317  -0.740  -0.015  0.00  0.00    +0.060 C 
BRANCH  14  16
ATOM     15  C   LIG    1       -0.016   1.306   0.009  0.00  0.00    +0.020 C 
ATOM     16  C   LIG    1        0.002  -0.004   0.002  0.00  0.00    -0.060 C 
ENDBRANCH  14  16
ENDBRANCH  13  14
ENDBRANCH  12  13
ENDBRANCH  11  12
ENDBRANCH   1  11
TORSDOF 8
ENDMDL
MODEL      150
REMARK  Name = ZINC000308482935
REMARK                            x       y       z     vdW  Elec       q    Type
REMARK                         _______ _______ _______ _____ _____    ______ ____
ROOT
ATOM      1  N   LIG    1        4.039  -4.159   2.305  0.00  0.00    -0.510 N 
ATOM      2  H   LIG    1        4.796  -3.496   2.384  0.00  0.00    +0.430 HD
ATOM      3  H   LIG    1        4.128  -4.669   1.439  0.00  0.00    +0.430 HD
ENDROOT
BRANCH   1   4
ATOM      4  C   LIG    1        4.090  -5.097   3.434  0.00  0.00    +0.160 C 
ATOM      5  C   LIG    1        3.051  -6.220   3.234  0.00  0.00    +0.050 C 
ATOM      6  C   LIG    1        3.752  -7.488   3.782  0.00  0.00    +0.040 C 
ATOM      7  C   LIG    1        5.219  -7.291   3.325  0.00  0.00    +0.050 C 
ATOM      8  C   LIG    1        5.469  -5.777   3.493  0.00  0.00    +0.000 C 
BRANCH   8   9
ATOM      9  C   LIG    1        6.356  -5.264   2.357  0.00  0.00    -0.010 C 
ATOM     10  C   LIG    1        7.751  -5.881   2.481  0.00  0.00    +0.040 C 
ENDBRANCH   8   9
ENDBRANCH   1   4
BRANCH   1  11
ATOM     11  C   LIG    1        2.757  -3.441   2.321  0.00  0.00    +0.250 C 
BRANCH  11  12
ATOM     12  C   LIG    1        2.705  -2.464   1.145  0.00  0.00    +0.030 C 
BRANCH  12  13
ATOM     13  C   LIG    1        1.370  -1.717   1.161  0.00  0.00    +0.050 C 
BRANCH  13  14
ATOM     14  C   LIG    1        1.317  -0.740  -0.015  0.00  0.00    +0.050 C 
BRANCH  14  16
ATOM     15  C   LIG    1       -0.016   1.306   0.009  0.00  0.00    +0.020 C 
ATOM     16  C   LIG    1        0.002  -0.004   0.002  0.00  0.00    -0.060 C 
ENDBRANCH  14  16
ENDBRANCH  13  14
ENDBRANCH  12  13
ENDBRANCH  11  12
ENDBRANCH   1  11
TORSDOF 7
ENDMDL
MODEL      151
REMARK  Name = ZINC000308482936
REMARK                            x       y       z     vdW  Elec       q    Type
REMARK                         _______ _______ _______ _____ _____    ______ ____
ROOT
ATOM      1  N   LIG    1        4.039  -4.159   2.305  0.00  0.00    -0.510 N 
ATOM      2  H   LIG    1        4.796  -3.496   2.384  0.00  0.00    +0.430 HD
ATOM      3  H   LIG    1        4.128  -4.669   1.439  0.00  0.00    +0.430 HD
ENDROOT
BRANCH   1   4
ATOM      4  C   LIG    1        4.090  -5.097   3.434  0.00  0.00    +0.160 C 
ATOM      5  C   LIG    1        4.134  -4.319   4.765  0.00  0.00    +0.050 C 
ATOM      6  C   LIG    1        5.081  -5.155   5.662  0.00  0.00    +0.040 C 
ATOM      7  C   LIG    1        6.165  -5.631   4.663  0.00  0.00    +0.050 C 
ATOM      8  C   LIG    1        5.380  -5.932   3.368  0.00  0.00    +0.000 C 
BRANCH   8   9
ATOM      9  C   LIG    1        6.208  -5.524   2.147  0.00  0.00    -0.010 C 
ATOM     10  C   LIG    1        7.443  -6.421   2.045  0.00  0.00    +0.040 C 
ENDBRANCH   8   9
ENDBRANCH   1   4
BRANCH   1  11
ATOM     11  C   LIG    1        2.757  -3.441   2.321  0.00  0.00    +0.250 C 
BRANCH  11  12
ATOM     12  C   LIG    1        2.705  -2.464   1.145  0.00  0.00    +0.030 C 
BRANCH  12  13
ATOM     13  C   LIG    1        1.370  -1.717   1.161  0.00  0.00    +0.050 C 
BRANCH  13  14
ATOM     14  C   LIG    1        1.317  -0.740  -0.015  0.00  0.00    +0.050 C 
BRANCH  14  16
ATOM     15  C   LIG    1       -0.016   1.306   0.009  0.00  0.00    +0.020 C 
ATOM     16  C   LIG    1        0.002  -0.004   0.002  0.00  0.00    -0.060 C 
ENDBRANCH  14  16
ENDBRANCH  13  14
ENDBRANCH  12  13
ENDBRANCH  11  12
ENDBRANCH   1  11
TORSDOF 7
ENDMDL
MODEL      152
REMARK  Name = ZINC000308482934
REMARK                            x       y       z     vdW  Elec       q    Type
REMARK                         _______ _______ _______ _____ _____    ______ ____
ROOT
ATOM      1  N   LIG    1        4.039  -4.159   2.305  0.00  0.00    -0.510 N 
ATOM      2  H   LIG    1        4.796  -3.496   2.384  0.00  0.00    +0.430 HD
ATOM      3  H   LIG    1        4.128  -4.669   1.439  0.00  0.00    +0.430 HD
ENDROOT
BRANCH   1   4
ATOM      4  C   LIG    1        4.090  -5.097   3.434  0.00  0.00    +0.160 C 
ATOM      5  C   LIG    1        4.133  -4.322   4.762  0.00  0.00    +0.040 C 
ATOM      6  C   LIG    1        5.453  -4.713   5.458  0.00  0.00    +0.040 C 
ATOM      7  C   LIG    1        5.808  -6.093   4.850  0.00  0.00    +0.050 C 
ATOM      8  C   LIG    1        5.384  -5.934   3.368  0.00  0.00    -0.010 C 
BRANCH   8   9
ATOM      9  C   LIG    1        5.111  -7.302   2.739  0.00  0.00    +0.020 C 
ATOM     10  C   LIG    1        6.416  -8.095   2.658  0.00  0.00    +0.030 C 
ENDBRANCH   8   9
ENDBRANCH   1   4
BRANCH   1  11
ATOM     11  C   LIG    1        2.757  -3.441   2.321  0.00  0.00    +0.250 C 
BRANCH  11  12
ATOM     12  C   LIG    1        2.705  -2.464   1.145  0.00  0.00    +0.030 C 
BRANCH  12  13
ATOM     13  C   LIG    1        1.370  -1.717   1.161  0.00  0.00    +0.050 C 
BRANCH  13  14
ATOM     14  C   LIG    1        1.317  -0.740  -0.015  0.00  0.00    +0.060 C 
BRANCH  14  16
ATOM     15  C   LIG    1       -0.016   1.306   0.009  0.00  0.00    +0.020 C 
ATOM     16  C   LIG    1        0.002  -0.004   0.002  0.00  0.00    -0.060 C 
ENDBRANCH  14  16
ENDBRANCH  13  14
ENDBRANCH  12  13
ENDBRANCH  11  12
ENDBRANCH   1  11
TORSDOF 7
ENDMDL
MODEL      153
REMARK  Name = ZINC000308482937
REMARK                            x       y       z     vdW  Elec       q    Type
REMARK                         _______ _______ _______ _____ _____    ______ ____
ROOT
ATOM      1  N   LIG    1        4.039  -4.159   2.305  0.00  0.00    -0.510 N 
ATOM      2  H   LIG    1        4.796  -3.496   2.384  0.00  0.00    +0.430 HD
ATOM      3  H   LIG    1        4.128  -4.669   1.439  0.00  0.00    +0.430 HD
ENDROOT
BRANCH   1   4
ATOM      4  C   LIG    1        4.090  -5.097   3.434  0.00  0.00    +0.160 C 
ATOM      5  C   LIG    1        3.051  -6.220   3.234  0.00  0.00    +0.060 C 
ATOM      6  C   LIG    1        3.859  -7.374   2.590  0.00  0.00    +0.020 C 
ATOM      7  C   LIG    1        5.219  -7.291   3.325  0.00  0.00    +0.060 C 
ATOM      8  C   LIG    1        5.469  -5.777   3.493  0.00  0.00    -0.020 C 
BRANCH   8   9
ATOM      9  C   LIG    1        6.134  -5.501   4.842  0.00  0.00    +0.030 C 
ATOM     10  C   LIG    1        7.539  -6.107   4.851  0.00  0.00    +0.030 C 
ENDBRANCH   8   9
ENDBRANCH   1   4
BRANCH   1  11
ATOM     11  C   LIG    1        2.757  -3.441   2.321  0.00  0.00    +0.250 C 
BRANCH  11  12
ATOM     12  C   LIG    1        2.705  -2.464   1.145  0.00  0.00    +0.030 C 
BRANCH  12  13
ATOM     13  C   LIG    1        1.370  -1.717   1.161  0.00  0.00    +0.050 C 
BRANCH  13  14
ATOM     14  C   LIG    1        1.317  -0.740  -0.015  0.00  0.00    +0.050 C 
BRANCH  14  16
ATOM     15  C   LIG    1       -0.016   1.306   0.009  0.00  0.00    +0.020 C 
ATOM     16  C   LIG    1        0.002  -0.004   0.002  0.00  0.00    -0.060 C 
ENDBRANCH  14  16
ENDBRANCH  13  14
ENDBRANCH  12  13
ENDBRANCH  11  12
ENDBRANCH   1  11
TORSDOF 7
ENDMDL
MODEL      154
REMARK  Name = ZINC000308486722
REMARK                            x       y       z     vdW  Elec       q    Type
REMARK                         _______ _______ _______ _____ _____    ______ ____
ROOT
ATOM      1  N   LIG    1       -1.215  -0.951  -2.574  0.00  0.00    -0.500 N 
ATOM      2  H   LIG    1       -0.377  -0.394  -2.501  0.00  0.00    +0.420 HD
ATOM      3  H   LIG    1       -1.993  -0.356  -2.818  0.00  0.00    +0.420 HD
ENDROOT
BRANCH   1   4
ATOM      4  C   LIG    1       -1.483  -1.605  -1.287  0.00  0.00    +0.160 C 
ATOM      5  C   LIG    1       -1.960  -0.562  -0.274  0.00  0.00    +0.090 C 
BRANCH   4   6
ATOM      6  C   LIG    1       -0.202  -2.266  -0.774  0.00  0.00    +0.100 C 
BRANCH   6   8
ATOM      7  C   LIG    1        1.347  -3.524  -2.182  0.00  0.00    +0.060 C 
ATOM      8  C   LIG    1        0.149  -3.435  -1.659  0.00  0.00    -0.060 C 
ENDBRANCH   6   8
ENDBRANCH   4   6
ENDBRANCH   1   4
BRANCH   1   9
ATOM      9  C   LIG    1       -1.034  -1.972  -3.615  0.00  0.00    +0.150 C 
ATOM     10  C   LIG    1       -2.326  -2.779  -3.767  0.00  0.00    +0.080 C 
BRANCH   9  11
ATOM     11  C   LIG    1       -0.698  -1.292  -4.944  0.00  0.00    +0.050 C 
BRANCH  11  12
ATOM     12  C   LIG    1        0.656  -0.589  -4.828  0.00  0.00    +0.020 C 
BRANCH  12  13
ATOM     13  C   LIG    1        0.992   0.091  -6.157  0.00  0.00    -0.070 C 
ATOM     14  C   LIG    1        1.058  -0.961  -7.266  0.00  0.00    +0.030 C 
ATOM     15  C   LIG    1        2.346   0.795  -6.041  0.00  0.00    +0.030 C 
ATOM     16  C   LIG    1       -0.090   1.119  -6.492  0.00  0.00    +0.020 C 
ENDBRANCH  12  13
ENDBRANCH  11  12
ENDBRANCH   9  11
ENDBRANCH   1   9
TORSDOF 7
ENDMDL
MODEL      155
REMARK  Name = ZINC000308486724
REMARK                            x       y       z     vdW  Elec       q    Type
REMARK                         _______ _______ _______ _____ _____    ______ ____
ROOT
ATOM      1  N   LIG    1       -0.264  -2.750  -1.010  0.00  0.00    -0.510 N 
ATOM      2  H   LIG    1       -0.466  -3.317  -0.200  0.00  0.00    +0.420 HD
ATOM      3  H   LIG    1        0.625  -2.290  -0.885  0.00  0.00    +0.420 HD
ENDROOT
BRANCH   1   4
ATOM      4  C   LIG    1       -1.319  -1.741  -1.176  0.00  0.00    +0.170 C 
ATOM      5  C   LIG    1       -2.682  -2.433  -1.241  0.00  0.00    +0.090 C 
BRANCH   4   6
ATOM      6  C   LIG    1       -1.293  -0.775   0.010  0.00  0.00    +0.090 C 
BRANCH   6   8
ATOM      7  C   LIG    1       -0.016   1.306   0.009  0.00  0.00    +0.090 C 
ATOM      8  C   LIG    1        0.002  -0.004   0.002  0.00  0.00    -0.110 C 
ENDBRANCH   6   8
ENDBRANCH   4   6
ENDBRANCH   1   4
BRANCH   1   9
ATOM      9  C   LIG    1       -0.210  -3.603  -2.204  0.00  0.00    +0.160 C 
ATOM     10  C   LIG    1        0.218  -2.766  -3.411  0.00  0.00    +0.090 C 
BRANCH   9  11
ATOM     11  C   LIG    1        0.800  -4.730  -1.981  0.00  0.00    +0.060 C 
BRANCH  11  12
ATOM     12  C   LIG    1        0.308  -5.641  -0.854  0.00  0.00    +0.020 C 
BRANCH  12  13
ATOM     13  C   LIG    1        1.319  -6.767  -0.631  0.00  0.00    -0.070 C 
ATOM     14  C   LIG    1        1.468  -7.582  -1.917  0.00  0.00    +0.030 C 
ATOM     15  C   LIG    1        0.827  -7.678   0.496  0.00  0.00    +0.030 C 
ATOM     16  C   LIG    1        2.674  -6.168  -0.247  0.00  0.00    +0.020 C 
ENDBRANCH  12  13
ENDBRANCH  11  12
ENDBRANCH   9  11
ENDBRANCH   1   9
TORSDOF 7
ENDMDL
MODEL      156
REMARK  Name = ZINC000308486725
REMARK                            x       y       z     vdW  Elec       q    Type
REMARK                         _______ _______ _______ _____ _____    ______ ____
ROOT
ATOM      1  N   LIG    1       -1.330  -0.975  -2.430  0.00  0.00    -0.510 N 
ATOM      2  H   LIG    1       -0.545  -0.341  -2.445  0.00  0.00    +0.420 HD
ATOM      3  H   LIG    1       -2.189  -0.449  -2.495  0.00  0.00    +0.420 HD
ENDROOT
BRANCH   1   4
ATOM      4  C   LIG    1       -1.319  -1.741  -1.176  0.00  0.00    +0.170 C 
ATOM      5  C   LIG    1       -2.575  -2.611  -1.099  0.00  0.00    +0.090 C 
BRANCH   4   6
ATOM      6  C   LIG    1       -1.293  -0.775   0.010  0.00  0.00    +0.100 C 
BRANCH   6   8
ATOM      7  C   LIG    1       -0.016   1.306   0.009  0.00  0.00    +0.060 C 
ATOM      8  C   LIG    1        0.002  -0.004   0.002  0.00  0.00    -0.090 C 
ENDBRANCH   6   8
ENDBRANCH   4   6
ENDBRANCH   1   4
BRANCH   1   9
ATOM      9  C   LIG    1       -1.234  -1.899  -3.569  0.00  0.00    +0.160 C 
ATOM     10  C   LIG    1        0.122  -2.606  -3.539  0.00  0.00    +0.090 C 
BRANCH   9  11
ATOM     11  C   LIG    1       -1.372  -1.114  -4.875  0.00  0.00    +0.060 C 
BRANCH  11  12
ATOM     12  C   LIG    1       -2.774  -0.509  -4.961  0.00  0.00    +0.020 C 
BRANCH  12  13
ATOM     13  C   LIG    1       -2.912   0.276  -6.268  0.00  0.00    -0.070 C 
ATOM     14  C   LIG    1       -1.870   1.396  -6.302  0.00  0.00    +0.020 C 
ATOM     15  C   LIG    1       -4.314   0.881  -6.354  0.00  0.00    +0.030 C 
ATOM     16  C   LIG    1       -2.688  -0.665  -7.454  0.00  0.00    +0.030 C 
ENDBRANCH  12  13
ENDBRANCH  11  12
ENDBRANCH   9  11
ENDBRANCH   1   9
TORSDOF 7
ENDMDL
MODEL      157
REMARK  Name = ZINC000308486723
REMARK                            x       y       z     vdW  Elec       q    Type
REMARK                         _______ _______ _______ _____ _____    ______ ____
ROOT
ATOM      1  N   LIG    1       -0.372  -2.823  -0.820  0.00  0.00    -0.500 N 
ATOM      2  H   LIG    1       -0.573  -3.389  -0.009  0.00  0.00    +0.420 HD
ATOM      3  H   LIG    1        0.523  -2.372  -0.701  0.00  0.00    +0.420 HD
ENDROOT
BRANCH   1   4
ATOM      4  C   LIG    1       -1.418  -1.804  -0.978  0.00  0.00    +0.160 C 
ATOM      5  C   LIG    1       -1.575  -1.027   0.331  0.00  0.00    +0.090 C 
BRANCH   4   6
ATOM      6  C   LIG    1       -1.025  -0.840  -2.099  0.00  0.00    +0.090 C 
BRANCH   6   8
ATOM      7  C   LIG    1       -2.423  -0.749  -4.099  0.00  0.00    +0.080 C 
ATOM      8  C   LIG    1       -1.502  -1.386  -3.421  0.00  0.00    -0.100 C 
ENDBRANCH   6   8
ENDBRANCH   4   6
ENDBRANCH   1   4
BRANCH   1   9
ATOM      9  C   LIG    1       -0.335  -3.677  -2.015  0.00  0.00    +0.160 C 
ATOM     10  C   LIG    1       -1.691  -4.362  -2.194  0.00  0.00    +0.090 C 
BRANCH   9  11
ATOM     11  C   LIG    1        0.755  -4.738  -1.851  0.00  0.00    +0.060 C 
BRANCH  11  12
ATOM     12  C   LIG    1        2.124  -4.058  -1.797  0.00  0.00    +0.020 C 
BRANCH  12  13
ATOM     13  C   LIG    1        3.214  -5.119  -1.632  0.00  0.00    -0.070 C 
ATOM     14  C   LIG    1        2.979  -5.896  -0.335  0.00  0.00    +0.020 C 
ATOM     15  C   LIG    1        4.584  -4.439  -1.578  0.00  0.00    +0.030 C 
ATOM     16  C   LIG    1        3.170  -6.083  -2.819  0.00  0.00    +0.030 C 
ENDBRANCH  12  13
ENDBRANCH  11  12
ENDBRANCH   9  11
ENDBRANCH   1   9
TORSDOF 7
ENDMDL
MODEL      158
REMARK  Name = ZINC000308494829
REMARK                            x       y       z     vdW  Elec       q    Type
REMARK                         _______ _______ _______ _____ _____    ______ ____
ROOT
ATOM      1  C   LIG    1        4.093  -4.188   2.304  0.00  0.00    +0.170 C 
ATOM      2  C   LIG    1        4.197  -5.073   3.547  0.00  0.00    +0.090 C 
ENDROOT
BRANCH   1   3
ATOM      3  N   LIG    1        4.170  -5.025   1.099  0.00  0.00    -0.510 N 
ATOM      4  H   LIG    1        4.019  -4.453   0.282  0.00  0.00    +0.430 HD
ATOM      5  H   LIG    1        3.463  -5.744   1.142  0.00  0.00    +0.430 HD
BRANCH   3   6
ATOM      6  C   LIG    1        5.498  -5.649   1.021  0.00  0.00    +0.240 C 
BRANCH   6   7
ATOM      7  C   LIG    1        5.579  -6.521  -0.234  0.00  0.00    +0.030 C 
BRANCH   7   8
ATOM      8  C   LIG    1        6.962  -7.171  -0.315  0.00  0.00    -0.010 C 
ATOM      9  C   LIG    1        8.024  -6.086  -0.506  0.00  0.00    +0.020 C 
ATOM     10  C   LIG    1        7.002  -8.138  -1.499  0.00  0.00    +0.040 C 
ENDBRANCH   7   8
ENDBRANCH   6   7
ENDBRANCH   3   6
ENDBRANCH   1   3
BRANCH   1  11
ATOM     11  C   LIG    1        2.757  -3.441   2.321  0.00  0.00    +0.050 C 
BRANCH  11  12
ATOM     12  C   LIG    1        2.705  -2.464   1.145  0.00  0.00    -0.000 C 
BRANCH  12  13
ATOM     13  C   LIG    1        1.370  -1.717   1.161  0.00  0.00    +0.020 C 
BRANCH  13  14
ATOM     14  C   LIG    1        1.317  -0.740  -0.015  0.00  0.00    +0.050 C 
BRANCH  14  16
ATOM     15  C   LIG    1       -0.016   1.306   0.009  0.00  0.00    +0.020 C 
ATOM     16  C   LIG    1        0.002  -0.004   0.002  0.00  0.00    -0.060 C 
ENDBRANCH  14  16
ENDBRANCH  13  14
ENDBRANCH  12  13
ENDBRANCH  11  12
ENDBRANCH   1  11
TORSDOF 9
ENDMDL
MODEL      159
REMARK  Name = ZINC000308494831
REMARK                            x       y       z     vdW  Elec       q    Type
REMARK                         _______ _______ _______ _____ _____    ______ ____
ROOT
ATOM      1  C   LIG    1        4.093  -4.188   2.304  0.00  0.00    +0.170 C 
ATOM      2  C   LIG    1        4.096  -5.252   3.403  0.00  0.00    +0.090 C 
ENDROOT
BRANCH   1   3
ATOM      3  N   LIG    1        5.188  -3.238   2.539  0.00  0.00    -0.510 N 
ATOM      4  H   LIG    1        5.108  -2.856   3.469  0.00  0.00    +0.430 HD
ATOM      5  H   LIG    1        5.136  -2.491   1.863  0.00  0.00    +0.430 HD
BRANCH   3   6
ATOM      6  C   LIG    1        6.476  -3.933   2.404  0.00  0.00    +0.240 C 
BRANCH   6   7
ATOM      7  C   LIG    1        7.617  -2.943   2.649  0.00  0.00    +0.030 C 
BRANCH   7   8
ATOM      8  C   LIG    1        8.958  -3.666   2.509  0.00  0.00    -0.010 C 
ATOM      9  C   LIG    1        9.089  -4.716   3.614  0.00  0.00    +0.020 C 
ATOM     10  C   LIG    1       10.098  -2.653   2.630  0.00  0.00    +0.040 C 
ENDBRANCH   7   8
ENDBRANCH   6   7
ENDBRANCH   3   6
ENDBRANCH   1   3
BRANCH   1  11
ATOM     11  C   LIG    1        2.757  -3.441   2.321  0.00  0.00    +0.050 C 
BRANCH  11  12
ATOM     12  C   LIG    1        2.705  -2.464   1.145  0.00  0.00    -0.000 C 
BRANCH  12  13
ATOM     13  C   LIG    1        1.370  -1.717   1.161  0.00  0.00    +0.020 C 
BRANCH  13  14
ATOM     14  C   LIG    1        1.317  -0.740  -0.015  0.00  0.00    +0.050 C 
BRANCH  14  16
ATOM     15  C   LIG    1       -0.016   1.306   0.009  0.00  0.00    +0.020 C 
ATOM     16  C   LIG    1        0.002  -0.004   0.002  0.00  0.00    -0.060 C 
ENDBRANCH  14  16
ENDBRANCH  13  14
ENDBRANCH  12  13
ENDBRANCH  11  12
ENDBRANCH   1  11
TORSDOF 9
ENDMDL
MODEL      160
REMARK  Name = ZINC000308508562
REMARK                            x       y       z     vdW  Elec       q    Type
REMARK                         _______ _______ _______ _____ _____    ______ ____
ROOT
ATOM      1  N   LIG    1        2.755  -3.402   2.274  0.00  0.00    -0.510 N 
ATOM      2  H   LIG    1        1.998  -4.065   2.195  0.00  0.00    +0.430 HD
ATOM      3  H   LIG    1        2.666  -2.892   3.140  0.00  0.00    +0.430 HD
ENDROOT
BRANCH   1   4
ATOM      4  C   LIG    1        2.705  -2.464   1.145  0.00  0.00    +0.250 C 
BRANCH   4   5
ATOM      5  C   LIG    1        1.370  -1.717   1.161  0.00  0.00    +0.030 C 
BRANCH   5   6
ATOM      6  C   LIG    1        1.317  -0.740  -0.015  0.00  0.00    +0.070 C 
BRANCH   6   8
ATOM      7  C   LIG    1       -0.016   1.306   0.009  0.00  0.00    +0.030 C 
ATOM      8  C   LIG    1        0.002  -0.004   0.002  0.00  0.00    -0.070 C 
ENDBRANCH   6   8
ENDBRANCH   5   6
ENDBRANCH   4   5
ENDBRANCH   1   4
BRANCH   1   9
ATOM      9  C   LIG    1        4.037  -4.120   2.258  0.00  0.00    +0.250 C 
BRANCH   9  10
ATOM     10  C   LIG    1        4.090  -5.097   3.434  0.00  0.00    -0.010 C 
ATOM     11  C   LIG    1        3.055  -6.173   3.243  0.00  0.00    +0.000 C 
ATOM     12  C   LIG    1        2.452  -6.653   4.577  0.00  0.00    +0.010 C 
ATOM     13  C   LIG    1        3.508  -6.816   5.686  0.00  0.00    +0.010 C 
ATOM     14  C   LIG    1        4.777  -7.450   5.185  0.00  0.00    +0.020 C 
ATOM     15  C   LIG    1        5.767  -6.331   4.803  0.00  0.00    +0.000 C 
ATOM     16  C   LIG    1        5.481  -5.760   3.494  0.00  0.00    +0.040 C 
ENDBRANCH   9  10
ENDBRANCH   1   9
TORSDOF 6
ENDMDL
MODEL      161
REMARK  Name = ZINC000308509495
REMARK                            x       y       z     vdW  Elec       q    Type
REMARK                         _______ _______ _______ _____ _____    ______ ____
ROOT
ATOM      1  C   LIG    1        2.644  -2.389   1.075  0.00  0.00    +0.170 C 
ENDROOT
BRANCH   1   2
ATOM      2  N   LIG    1        2.894  -3.367   0.007  0.00  0.00    -0.480 N 
ATOM      3  H   LIG    1        3.775  -3.830   0.175  0.00  0.00    +0.420 HD
ATOM      4  H   LIG    1        2.928  -2.893  -0.882  0.00  0.00    +0.420 HD
BRANCH   2   5
ATOM      5  C   LIG    1        1.814  -4.362  -0.008  0.00  0.00    +0.100 C 
ATOM      6  C   LIG    1        2.186  -5.814   0.297  0.00  0.00    +0.100 C 
ATOM      7  C   LIG    1        1.825  -5.400  -1.131  0.00  0.00    -0.090 C 
ATOM      8  C   LIG    1        2.962  -5.323  -2.153  0.00  0.00    +0.080 C 
ATOM      9  C   LIG    1        0.474  -5.862  -1.681  0.00  0.00    +0.090 C 
ENDBRANCH   2   5
ENDBRANCH   1   2
BRANCH   1  10
ATOM     10  C   LIG    1        1.378  -1.594   0.751  0.00  0.00    +0.060 C 
BRANCH  10  11
ATOM     11  C   LIG    1        1.589  -0.800  -0.540  0.00  0.00    +0.040 C 
BRANCH  11  13
ATOM     12  C   LIG    1        0.409   1.279  -1.037  0.00  0.00    +0.050 C 
ATOM     13  C   LIG    1        0.342  -0.017  -0.859  0.00  0.00    -0.070 C 
ENDBRANCH  11  13
ENDBRANCH  10  11
ENDBRANCH   1  10
BRANCH   1  14
ATOM     14  C   LIG    1        2.461  -3.121   2.405  0.00  0.00    +0.060 C 
BRANCH  14  15
ATOM     15  C   LIG    1        3.758  -3.846   2.771  0.00  0.00    -0.000 C 
ATOM     16  C   LIG    1        3.617  -4.474   4.159  0.00  0.00    +0.030 C 
ENDBRANCH  14  15
ENDBRANCH   1  14
TORSDOF 7
ENDMDL
MODEL      162
REMARK  Name = ZINC000308510054
REMARK                            x       y       z     vdW  Elec       q    Type
REMARK                         _______ _______ _______ _____ _____    ______ ____
ROOT
ATOM      1  C   LIG    1       -2.551  -2.467  -1.230  0.00  0.00    +0.170 C 
ENDROOT
BRANCH   1   2
ATOM      2  C   LIG    1       -3.920  -1.791  -1.328  0.00  0.00    -0.080 C 
ATOM      3  C   LIG    1       -4.096  -0.824  -0.155  0.00  0.00    +0.040 C 
ATOM      4  C   LIG    1       -5.018  -2.855  -1.281  0.00  0.00    +0.070 C 
ATOM      5  C   LIG    1       -4.014  -1.018  -2.645  0.00  0.00    +0.040 C 
ENDBRANCH   1   2
BRANCH   1   6
ATOM      6  N   LIG    1       -1.496  -1.447  -1.294  0.00  0.00    -0.510 N 
ATOM      7  H   LIG    1       -1.526  -0.987  -2.191  0.00  0.00    +0.420 HD
ATOM      8  H   LIG    1       -1.641  -0.767  -0.563  0.00  0.00    +0.430 HD
BRANCH   6   9
ATOM      9  C   LIG    1       -0.185  -2.086  -1.115  0.00  0.00    +0.300 C 
BRANCH   9  11
ATOM     10  C   LIG    1        1.694  -0.991  -0.005  0.00  0.00    +0.130 C 
ATOM     11  C   LIG    1        0.884  -1.027  -1.034  0.00  0.00    -0.110 C 
ENDBRANCH   9  11
ENDBRANCH   6   9
ENDBRANCH   1   6
BRANCH   1  12
ATOM     12  C   LIG    1       -2.382  -3.448  -2.393  0.00  0.00    +0.060 C 
BRANCH  12  13
ATOM     13  C   LIG    1       -1.412  -4.559  -1.986  0.00  0.00    +0.010 C 
BRANCH  13  14
ATOM     14  C   LIG    1       -1.137  -5.462  -3.190  0.00  0.00    -0.030 C 
ATOM     15  C   LIG    1       -2.426  -6.179  -3.595  0.00  0.00    +0.010 C 
ATOM     16  C   LIG    1       -0.073  -6.497  -2.819  0.00  0.00    +0.020 C 
ENDBRANCH  13  14
ENDBRANCH  12  13
ENDBRANCH   1  12
TORSDOF 7
ENDMDL
MODEL      163
REMARK  Name = ZINC000308509490
REMARK                            x       y       z     vdW  Elec       q    Type
REMARK                         _______ _______ _______ _____ _____    ______ ____
ROOT
ATOM      1  C   LIG    1        2.794  -2.510   1.266  0.00  0.00    +0.170 C 
ENDROOT
BRANCH   1   2
ATOM      2  N   LIG    1        3.978  -1.641   1.266  0.00  0.00    -0.480 N 
ATOM      3  H   LIG    1        4.070  -1.197   2.167  0.00  0.00    +0.420 HD
ATOM      4  H   LIG    1        3.878  -0.935   0.552  0.00  0.00    +0.420 HD
BRANCH   2   5
ATOM      5  C   LIG    1        5.176  -2.446   0.993  0.00  0.00    +0.100 C 
ATOM      6  C   LIG    1        6.223  -2.555   2.104  0.00  0.00    +0.100 C 
ATOM      7  C   LIG    1        6.510  -1.707   0.862  0.00  0.00    -0.090 C 
ATOM      8  C   LIG    1        6.493  -0.186   1.025  0.00  0.00    +0.080 C 
ATOM      9  C   LIG    1        7.523  -2.252  -0.146  0.00  0.00    +0.090 C 
ENDBRANCH   2   5
ENDBRANCH   1   2
BRANCH   1  10
ATOM     10  C   LIG    1        1.533  -1.654   1.404  0.00  0.00    +0.070 C 
BRANCH  10  11
ATOM     11  C   LIG    1        1.383  -0.765   0.168  0.00  0.00    +0.050 C 
BRANCH  11  13
ATOM     12  C   LIG    1        0.221   1.382   0.202  0.00  0.00    +0.040 C 
ATOM     13  C   LIG    1        0.141   0.079   0.303  0.00  0.00    -0.050 C 
ENDBRANCH  11  13
ENDBRANCH  10  11
ENDBRANCH   1  10
BRANCH   1  14
ATOM     14  C   LIG    1        2.878  -3.486   2.441  0.00  0.00    +0.040 C 
BRANCH  14  15
ATOM     15  C   LIG    1        1.718  -4.481   2.362  0.00  0.00    +0.020 C 
ATOM     16  C   LIG    1        1.786  -5.441   3.551  0.00  0.00    +0.030 C 
ENDBRANCH  14  15
ENDBRANCH   1  14
TORSDOF 7
ENDMDL
MODEL      164
REMARK  Name = ZINC000308510055
REMARK                            x       y       z     vdW  Elec       q    Type
REMARK                         _______ _______ _______ _____ _____    ______ ____
ROOT
ATOM      1  C   LIG    1       -2.808  -2.475  -0.951  0.00  0.00    +0.170 C 
ENDROOT
BRANCH   1   2
ATOM      2  C   LIG    1       -2.749  -3.191   0.401  0.00  0.00    -0.080 C 
ATOM      3  C   LIG    1       -1.614  -4.216   0.386  0.00  0.00    +0.040 C 
ATOM      4  C   LIG    1       -4.078  -3.904   0.658  0.00  0.00    +0.070 C 
ATOM      5  C   LIG    1       -2.497  -2.167   1.509  0.00  0.00    +0.050 C 
ENDBRANCH   1   2
BRANCH   1   6
ATOM      6  N   LIG    1       -1.489  -1.907  -1.262  0.00  0.00    -0.510 N 
ATOM      7  H   LIG    1       -1.042  -1.609  -0.408  0.00  0.00    +0.420 HD
ATOM      8  H   LIG    1       -0.919  -2.607  -1.713  0.00  0.00    +0.420 HD
BRANCH   6   9
ATOM      9  C   LIG    1       -1.651  -0.755  -2.159  0.00  0.00    +0.290 C 
BRANCH   9  11
ATOM     10  C   LIG    1        0.082  -0.021  -3.713  0.00  0.00    +0.130 C 
ATOM     11  C   LIG    1       -0.299  -0.166  -2.468  0.00  0.00    -0.110 C 
ENDBRANCH   9  11
ENDBRANCH   6   9
ENDBRANCH   1   6
BRANCH   1  12
ATOM     12  C   LIG    1       -3.202  -3.475  -2.040  0.00  0.00    +0.060 C 
BRANCH  12  13
ATOM     13  C   LIG    1       -3.266  -2.758  -3.390  0.00  0.00    +0.010 C 
BRANCH  13  14
ATOM     14  C   LIG    1       -3.822  -3.713  -4.449  0.00  0.00    -0.020 C 
ATOM     15  C   LIG    1       -2.846  -4.874  -4.652  0.00  0.00    +0.020 C 
ATOM     16  C   LIG    1       -4.003  -2.962  -5.769  0.00  0.00    +0.030 C 
ENDBRANCH  13  14
ENDBRANCH  12  13
ENDBRANCH   1  12
TORSDOF 7
ENDMDL
MODEL      165
REMARK  Name = ZINC000308509492
REMARK                            x       y       z     vdW  Elec       q    Type
REMARK                         _______ _______ _______ _____ _____    ______ ____
ROOT
ATOM      1  C   LIG    1        2.772  -2.575   1.173  0.00  0.00    +0.170 C 
ENDROOT
BRANCH   1   2
ATOM      2  N   LIG    1        3.722  -1.464   1.316  0.00  0.00    -0.480 N 
ATOM      3  H   LIG    1        3.565  -0.791   0.581  0.00  0.00    +0.420 HD
ATOM      4  H   LIG    1        4.665  -1.818   1.253  0.00  0.00    +0.420 HD
BRANCH   2   5
ATOM      5  C   LIG    1        3.527  -0.818   2.621  0.00  0.00    +0.100 C 
ATOM      6  C   LIG    1        4.686  -0.878   3.619  0.00  0.00    +0.100 C 
ATOM      7  C   LIG    1        4.347   0.440   2.916  0.00  0.00    -0.090 C 
ATOM      8  C   LIG    1        3.684   1.536   3.752  0.00  0.00    +0.090 C 
ATOM      9  C   LIG    1        5.308   0.928   1.830  0.00  0.00    +0.080 C 
ENDBRANCH   2   5
ENDBRANCH   1   2
BRANCH   1  10
ATOM     10  C   LIG    1        1.345  -2.024   1.134  0.00  0.00    +0.060 C 
BRANCH  10  11
ATOM     11  C   LIG    1        1.158  -1.182  -0.130  0.00  0.00    +0.050 C 
BRANCH  11  13
ATOM     12  C   LIG    1       -0.448   0.650  -0.287  0.00  0.00    +0.040 C 
ATOM     13  C   LIG    1       -0.247  -0.639  -0.169  0.00  0.00    -0.050 C 
ENDBRANCH  11  13
ENDBRANCH  10  11
ENDBRANCH   1  10
BRANCH   1  14
ATOM     14  C   LIG    1        2.918  -3.527   2.362  0.00  0.00    +0.060 C 
BRANCH  14  15
ATOM     15  C   LIG    1        4.299  -4.184   2.322  0.00  0.00    +0.000 C 
ATOM     16  C   LIG    1        4.487  -5.053   3.567  0.00  0.00    +0.030 C 
ENDBRANCH  14  15
ENDBRANCH   1  14
TORSDOF 7
ENDMDL
MODEL      166
REMARK  Name = ZINC000308512253
REMARK                            x       y       z     vdW  Elec       q    Type
REMARK                         _______ _______ _______ _____ _____    ______ ____
ROOT
ATOM      1  N   LIG    1        4.397  -4.084   2.416  0.00  0.00    -0.510 N 
ATOM      2  H   LIG    1        5.222  -3.571   2.690  0.00  0.00    +0.430 HD
ATOM      3  H   LIG    1        4.563  -4.537   1.529  0.00  0.00    +0.430 HD
ENDROOT
BRANCH   1   4
ATOM      4  C   LIG    1        4.090  -5.097   3.434  0.00  0.00    +0.170 C 
ATOM      5  C   LIG    1        3.961  -4.423   4.801  0.00  0.00    +0.090 C 
BRANCH   4   6
ATOM      6  C   LIG    1        5.215  -6.133   3.479  0.00  0.00    -0.020 C 
ATOM      7  C   LIG    1        4.876  -7.257   4.489  0.00  0.00    +0.050 C 
ATOM      8  C   LIG    1        5.735  -8.442   3.982  0.00  0.00    +0.020 C 
ATOM      9  C   LIG    1        5.662  -8.331   2.445  0.00  0.00    +0.010 C 
ATOM     10  C   LIG    1        5.331  -6.863   2.125  0.00  0.00    +0.000 C 
ENDBRANCH   4   6
ENDBRANCH   1   4
BRANCH   1  11
ATOM     11  C   LIG    1        3.264  -3.158   2.288  0.00  0.00    +0.250 C 
BRANCH  11  12
ATOM     12  C   LIG    1        3.585  -2.103   1.227  0.00  0.00    +0.030 C 
BRANCH  12  13
ATOM     13  C   LIG    1        2.404  -1.138   1.094  0.00  0.00    +0.050 C 
BRANCH  13  14
ATOM     14  C   LIG    1        2.725  -0.083   0.034  0.00  0.00    +0.060 C 
BRANCH  14  16
ATOM     15  C   LIG    1        1.751   2.156   0.042  0.00  0.00    +0.020 C 
ATOM     16  C   LIG    1        1.562   0.867  -0.098  0.00  0.00    -0.060 C 
ENDBRANCH  14  16
ENDBRANCH  13  14
ENDBRANCH  12  13
ENDBRANCH  11  12
ENDBRANCH   1  11
TORSDOF 7
ENDMDL
MODEL      167
REMARK  Name = ZINC000308509487
REMARK                            x       y       z     vdW  Elec       q    Type
REMARK                         _______ _______ _______ _____ _____    ______ ____
ROOT
ATOM      1  C   LIG    1        2.718  -2.282   1.069  0.00  0.00    +0.170 C 
ENDROOT
BRANCH   1   2
ATOM      2  N   LIG    1        2.679  -3.208  -0.071  0.00  0.00    -0.480 N 
ATOM      3  H   LIG    1        2.661  -2.681  -0.932  0.00  0.00    +0.420 HD
ATOM      4  H   LIG    1        1.851  -3.781  -0.011  0.00  0.00    +0.420 HD
BRANCH   2   5
ATOM      5  C   LIG    1        3.871  -4.065  -0.047  0.00  0.00    +0.100 C 
ATOM      6  C   LIG    1        3.656  -5.569   0.135  0.00  0.00    +0.100 C 
ATOM      7  C   LIG    1        4.082  -5.016  -1.227  0.00  0.00    -0.090 C 
ATOM      8  C   LIG    1        5.521  -5.276  -1.677  0.00  0.00    +0.090 C 
ATOM      9  C   LIG    1        3.034  -5.002  -2.342  0.00  0.00    +0.080 C 
ENDBRANCH   2   5
ENDBRANCH   1   2
BRANCH   1  10
ATOM     10  C   LIG    1        1.555  -1.294   0.963  0.00  0.00    +0.070 C 
BRANCH  10  11
ATOM     11  C   LIG    1        1.742  -0.417  -0.277  0.00  0.00    +0.040 C 
BRANCH  11  13
ATOM     12  C   LIG    1        0.834   1.842  -0.462  0.00  0.00    +0.050 C 
ATOM     13  C   LIG    1        0.596   0.556  -0.381  0.00  0.00    -0.070 C 
ENDBRANCH  11  13
ENDBRANCH  10  11
ENDBRANCH   1  10
BRANCH   1  14
ATOM     14  C   LIG    1        2.599  -3.074   2.373  0.00  0.00    +0.040 C 
BRANCH  14  15
ATOM     15  C   LIG    1        2.746  -2.122   3.562  0.00  0.00    +0.020 C 
ATOM     16  C   LIG    1        2.756  -2.929   4.862  0.00  0.00    +0.030 C 
ENDBRANCH  14  15
ENDBRANCH   1  14
TORSDOF 7
ENDMDL
MODEL      168
REMARK  Name = ZINC000308512254
REMARK                            x       y       z     vdW  Elec       q    Type
REMARK                         _______ _______ _______ _____ _____    ______ ____
ROOT
ATOM      1  N   LIG    1        4.039  -4.159   2.305  0.00  0.00    -0.510 N 
ATOM      2  H   LIG    1        4.796  -3.496   2.384  0.00  0.00    +0.430 HD
ATOM      3  H   LIG    1        4.128  -4.669   1.439  0.00  0.00    +0.430 HD
ENDROOT
BRANCH   1   4
ATOM      4  C   LIG    1        4.090  -5.097   3.434  0.00  0.00    +0.170 C 
ATOM      5  C   LIG    1        3.020  -6.175   3.248  0.00  0.00    +0.090 C 
BRANCH   4   6
ATOM      6  C   LIG    1        5.471  -5.753   3.490  0.00  0.00    -0.020 C 
ATOM      7  C   LIG    1        6.559  -4.697   3.808  0.00  0.00    +0.010 C 
ATOM      8  C   LIG    1        7.699  -5.554   4.413  0.00  0.00    +0.030 C 
ATOM      9  C   LIG    1        6.966  -6.618   5.256  0.00  0.00    +0.010 C 
ATOM     10  C   LIG    1        5.550  -6.744   4.670  0.00  0.00    +0.040 C 
ENDBRANCH   4   6
ENDBRANCH   1   4
BRANCH   1  11
ATOM     11  C   LIG    1        2.757  -3.441   2.321  0.00  0.00    +0.250 C 
BRANCH  11  12
ATOM     12  C   LIG    1        2.705  -2.464   1.145  0.00  0.00    +0.030 C 
BRANCH  12  13
ATOM     13  C   LIG    1        1.370  -1.717   1.161  0.00  0.00    +0.050 C 
BRANCH  13  14
ATOM     14  C   LIG    1        1.317  -0.740  -0.015  0.00  0.00    +0.060 C 
BRANCH  14  16
ATOM     15  C   LIG    1       -0.016   1.306   0.009  0.00  0.00    +0.020 C 
ATOM     16  C   LIG    1        0.002  -0.004   0.002  0.00  0.00    -0.060 C 
ENDBRANCH  14  16
ENDBRANCH  13  14
ENDBRANCH  12  13
ENDBRANCH  11  12
ENDBRANCH   1  11
TORSDOF 7
ENDMDL
MODEL      169
REMARK  Name = ZINC000308518213
REMARK                            x       y       z     vdW  Elec       q    Type
REMARK                         _______ _______ _______ _____ _____    ______ ____
ROOT
ATOM      1  N   LIG    1        4.039  -4.159   2.305  0.00  0.00    -0.510 N 
ATOM      2  H   LIG    1        4.796  -3.496   2.384  0.00  0.00    +0.430 HD
ATOM      3  H   LIG    1        4.128  -4.669   1.439  0.00  0.00    +0.430 HD
ENDROOT
BRANCH   1   4
ATOM      4  C   LIG    1        4.090  -5.097   3.434  0.00  0.00    +0.160 C 
ATOM      5  C   LIG    1        3.020  -6.175   3.248  0.00  0.00    +0.040 C 
ATOM      6  C   LIG    1        3.073  -7.153   4.424  0.00  0.00    +0.040 C 
ATOM      7  C   LIG    1        4.454  -7.809   4.481  0.00  0.00    +0.020 C 
ATOM      8  C   LIG    1        5.523  -6.730   4.667  0.00  0.00    +0.000 C 
ATOM      9  C   LIG    1        5.264  -5.973   5.971  0.00  0.00    +0.030 C 
ATOM     10  C   LIG    1        5.471  -5.753   3.490  0.00  0.00    +0.040 C 
ENDBRANCH   1   4
BRANCH   1  11
ATOM     11  C   LIG    1        2.757  -3.441   2.321  0.00  0.00    +0.250 C 
BRANCH  11  12
ATOM     12  C   LIG    1        2.705  -2.464   1.145  0.00  0.00    +0.030 C 
BRANCH  12  13
ATOM     13  C   LIG    1        1.370  -1.717   1.161  0.00  0.00    +0.050 C 
BRANCH  13  14
ATOM     14  C   LIG    1        1.317  -0.740  -0.015  0.00  0.00    +0.060 C 
BRANCH  14  16
ATOM     15  C   LIG    1       -0.016   1.306   0.009  0.00  0.00    +0.020 C 
ATOM     16  C   LIG    1        0.002  -0.004   0.002  0.00  0.00    -0.060 C 
ENDBRANCH  14  16
ENDBRANCH  13  14
ENDBRANCH  12  13
ENDBRANCH  11  12
ENDBRANCH   1  11
TORSDOF 6
ENDMDL
MODEL      170
REMARK  Name = ZINC000308518212
REMARK                            x       y       z     vdW  Elec       q    Type
REMARK                         _______ _______ _______ _____ _____    ______ ____
ROOT
ATOM      1  N   LIG    1        4.039  -4.159   2.305  0.00  0.00    -0.510 N 
ATOM      2  H   LIG    1        4.796  -3.496   2.384  0.00  0.00    +0.430 HD
ATOM      3  H   LIG    1        4.128  -4.669   1.439  0.00  0.00    +0.430 HD
ENDROOT
BRANCH   1   4
ATOM      4  C   LIG    1        4.090  -5.097   3.434  0.00  0.00    +0.170 C 
ATOM      5  C   LIG    1        4.080  -4.314   4.748  0.00  0.00    +0.040 C 
ATOM      6  C   LIG    1        4.133  -5.292   5.924  0.00  0.00    +0.040 C 
ATOM      7  C   LIG    1        5.412  -6.126   5.837  0.00  0.00    +0.020 C 
ATOM      8  C   LIG    1        5.421  -6.909   4.522  0.00  0.00    +0.000 C 
ATOM      9  C   LIG    1        6.700  -7.744   4.435  0.00  0.00    +0.040 C 
ATOM     10  C   LIG    1        5.369  -5.932   3.346  0.00  0.00    +0.040 C 
ENDBRANCH   1   4
BRANCH   1  11
ATOM     11  C   LIG    1        2.757  -3.441   2.321  0.00  0.00    +0.250 C 
BRANCH  11  12
ATOM     12  C   LIG    1        2.705  -2.464   1.145  0.00  0.00    +0.030 C 
BRANCH  12  13
ATOM     13  C   LIG    1        1.370  -1.717   1.161  0.00  0.00    +0.040 C 
BRANCH  13  14
ATOM     14  C   LIG    1        1.317  -0.740  -0.015  0.00  0.00    +0.060 C 
BRANCH  14  16
ATOM     15  C   LIG    1       -0.016   1.306   0.009  0.00  0.00    +0.020 C 
ATOM     16  C   LIG    1        0.002  -0.004   0.002  0.00  0.00    -0.060 C 
ENDBRANCH  14  16
ENDBRANCH  13  14
ENDBRANCH  12  13
ENDBRANCH  11  12
ENDBRANCH   1  11
TORSDOF 6
ENDMDL
MODEL      171
REMARK  Name = ZINC000308518210
REMARK                            x       y       z     vdW  Elec       q    Type
REMARK                         _______ _______ _______ _____ _____    ______ ____
ROOT
ATOM      1  N   LIG    1        4.039  -4.159   2.305  0.00  0.00    -0.510 N 
ATOM      2  H   LIG    1        4.796  -3.496   2.384  0.00  0.00    +0.430 HD
ATOM      3  H   LIG    1        4.128  -4.669   1.439  0.00  0.00    +0.430 HD
ENDROOT
BRANCH   1   4
ATOM      4  C   LIG    1        4.090  -5.097   3.434  0.00  0.00    +0.160 C 
ATOM      5  C   LIG    1        4.080  -4.314   4.748  0.00  0.00    +0.040 C 
ATOM      6  C   LIG    1        4.133  -5.292   5.924  0.00  0.00    +0.040 C 
ATOM      7  C   LIG    1        5.412  -6.126   5.837  0.00  0.00    +0.020 C 
ATOM      8  C   LIG    1        5.421  -6.909   4.522  0.00  0.00    +0.000 C 
ATOM      9  C   LIG    1        4.204  -7.835   4.471  0.00  0.00    +0.030 C 
ATOM     10  C   LIG    1        5.369  -5.932   3.346  0.00  0.00    +0.040 C 
ENDBRANCH   1   4
BRANCH   1  11
ATOM     11  C   LIG    1        2.757  -3.441   2.321  0.00  0.00    +0.250 C 
BRANCH  11  12
ATOM     12  C   LIG    1        2.705  -2.464   1.145  0.00  0.00    +0.030 C 
BRANCH  12  13
ATOM     13  C   LIG    1        1.370  -1.717   1.161  0.00  0.00    +0.040 C 
BRANCH  13  14
ATOM     14  C   LIG    1        1.317  -0.740  -0.015  0.00  0.00    +0.060 C 
BRANCH  14  16
ATOM     15  C   LIG    1       -0.016   1.306   0.009  0.00  0.00    +0.020 C 
ATOM     16  C   LIG    1        0.002  -0.004   0.002  0.00  0.00    -0.060 C 
ENDBRANCH  14  16
ENDBRANCH  13  14
ENDBRANCH  12  13
ENDBRANCH  11  12
ENDBRANCH   1  11
TORSDOF 6
ENDMDL
MODEL      172
REMARK  Name = ZINC000308518211
REMARK                            x       y       z     vdW  Elec       q    Type
REMARK                         _______ _______ _______ _____ _____    ______ ____
ROOT
ATOM      1  N   LIG    1        4.039  -4.159   2.305  0.00  0.00    -0.510 N 
ATOM      2  H   LIG    1        4.796  -3.496   2.384  0.00  0.00    +0.430 HD
ATOM      3  H   LIG    1        4.128  -4.669   1.439  0.00  0.00    +0.430 HD
ENDROOT
BRANCH   1   4
ATOM      4  C   LIG    1        4.090  -5.097   3.434  0.00  0.00    +0.170 C 
ATOM      5  C   LIG    1        3.020  -6.175   3.248  0.00  0.00    +0.040 C 
ATOM      6  C   LIG    1        3.073  -7.153   4.424  0.00  0.00    +0.040 C 
ATOM      7  C   LIG    1        4.454  -7.809   4.481  0.00  0.00    +0.020 C 
ATOM      8  C   LIG    1        5.523  -6.730   4.667  0.00  0.00    +0.000 C 
ATOM      9  C   LIG    1        6.904  -7.386   4.723  0.00  0.00    +0.040 C 
ATOM     10  C   LIG    1        5.471  -5.753   3.490  0.00  0.00    +0.040 C 
ENDBRANCH   1   4
BRANCH   1  11
ATOM     11  C   LIG    1        2.757  -3.441   2.321  0.00  0.00    +0.250 C 
BRANCH  11  12
ATOM     12  C   LIG    1        2.705  -2.464   1.145  0.00  0.00    +0.030 C 
BRANCH  12  13
ATOM     13  C   LIG    1        1.370  -1.717   1.161  0.00  0.00    +0.050 C 
BRANCH  13  14
ATOM     14  C   LIG    1        1.317  -0.740  -0.015  0.00  0.00    +0.060 C 
BRANCH  14  16
ATOM     15  C   LIG    1       -0.016   1.306   0.009  0.00  0.00    +0.020 C 
ATOM     16  C   LIG    1        0.002  -0.004   0.002  0.00  0.00    -0.060 C 
ENDBRANCH  14  16
ENDBRANCH  13  14
ENDBRANCH  12  13
ENDBRANCH  11  12
ENDBRANCH   1  11
TORSDOF 6
ENDMDL
MODEL      173
REMARK  Name = ZINC000308582193
REMARK                            x       y       z     vdW  Elec       q    Type
REMARK                         _______ _______ _______ _____ _____    ______ ____
ROOT
ATOM      1  N   LIG    1       -1.528  -0.967  -2.608  0.00  0.00    -0.500 N 
ATOM      2  H   LIG    1       -0.984  -0.144  -2.820  0.00  0.00    +0.420 HD
ATOM      3  H   LIG    1       -2.507  -0.723  -2.575  0.00  0.00    +0.420 HD
ENDROOT
BRANCH   1   4
ATOM      4  C   LIG    1       -1.114  -1.506  -1.306  0.00  0.00    +0.160 C 
BRANCH   4   5
ATOM      5  C   LIG    1       -1.830  -0.746  -0.188  0.00  0.00    +0.050 C 
ATOM      6  C   LIG    1       -3.337  -0.984  -0.293  0.00  0.00    +0.050 C 
ENDBRANCH   4   5
BRANCH   4   7
ATOM      7  C   LIG    1        0.399  -1.346  -1.145  0.00  0.00    +0.100 C 
BRANCH   7   9
ATOM      8  C   LIG    1        2.009  -1.736  -2.939  0.00  0.00    +0.060 C 
ATOM      9  C   LIG    1        1.106  -2.238  -2.132  0.00  0.00    -0.090 C 
ENDBRANCH   7   9
ENDBRANCH   4   7
ENDBRANCH   1   4
BRANCH   1  10
ATOM     10  C   LIG    1       -1.310  -1.980  -3.650  0.00  0.00    +0.160 C 
BRANCH  10  11
ATOM     11  C   LIG    1       -1.152  -1.290  -5.006  0.00  0.00    +0.060 C 
BRANCH  11  12
ATOM     12  C   LIG    1        0.118  -0.437  -4.999  0.00  0.00    -0.010 C 
ATOM     13  C   LIG    1        0.277   0.253  -6.356  0.00  0.00    +0.030 C 
ENDBRANCH  11  12
ENDBRANCH  10  11
BRANCH  10  14
ATOM     14  C   LIG    1       -2.510  -2.929  -3.697  0.00  0.00    +0.060 C 
BRANCH  14  15
ATOM     15  C   LIG    1       -2.601  -3.701  -2.380  0.00  0.00    +0.000 C 
ATOM     16  C   LIG    1       -3.735  -4.724  -2.466  0.00  0.00    +0.030 C 
ENDBRANCH  14  15
ENDBRANCH  10  14
ENDBRANCH   1  10
TORSDOF 9
ENDMDL
MODEL      174
REMARK  Name = ZINC000308582194
REMARK                            x       y       z     vdW  Elec       q    Type
REMARK                         _______ _______ _______ _____ _____    ______ ____
ROOT
ATOM      1  N   LIG    1        0.233  -2.880  -1.906  0.00  0.00    -0.500 N 
ATOM      2  H   LIG    1        1.115  -2.752  -2.380  0.00  0.00    +0.420 HD
ATOM      3  H   LIG    1       -0.399  -2.137  -2.166  0.00  0.00    +0.420 HD
ENDROOT
BRANCH   1   4
ATOM      4  C   LIG    1        0.449  -2.853  -0.453  0.00  0.00    +0.160 C 
BRANCH   4   5
ATOM      5  C   LIG    1        1.539  -1.833  -0.118  0.00  0.00    +0.050 C 
ATOM      6  C   LIG    1        2.877  -2.310  -0.685  0.00  0.00    +0.040 C 
ENDBRANCH   4   5
BRANCH   4   7
ATOM      7  C   LIG    1       -0.852  -2.460   0.249  0.00  0.00    +0.090 C 
BRANCH   7   9
ATOM      8  C   LIG    1       -2.030  -4.171   1.532  0.00  0.00    +0.080 C 
ATOM      9  C   LIG    1       -1.749  -3.667   0.356  0.00  0.00    -0.090 C 
ENDBRANCH   7   9
ENDBRANCH   4   7
ENDBRANCH   1   4
BRANCH   1  10
ATOM     10  C   LIG    1       -0.347  -4.173  -2.292  0.00  0.00    +0.160 C 
BRANCH  10  11
ATOM     11  C   LIG    1        0.642  -5.293  -1.964  0.00  0.00    +0.050 C 
BRANCH  11  12
ATOM     12  C   LIG    1        0.300  -5.893  -0.599  0.00  0.00    +0.020 C 
ATOM     13  C   LIG    1        1.378  -6.904  -0.201  0.00  0.00    +0.030 C 
ENDBRANCH  11  12
ENDBRANCH  10  11
BRANCH  10  14
ATOM     14  C   LIG    1       -0.639  -4.173  -3.794  0.00  0.00    +0.050 C 
BRANCH  14  15
ATOM     15  C   LIG    1       -1.740  -3.156  -4.099  0.00  0.00    -0.000 C 
ATOM     16  C   LIG    1       -2.125  -3.249  -5.577  0.00  0.00    +0.030 C 
ENDBRANCH  14  15
ENDBRANCH  10  14
ENDBRANCH   1  10
TORSDOF 9
ENDMDL
MODEL      175
REMARK  Name = ZINC000308582871
REMARK                            x       y       z     vdW  Elec       q    Type
REMARK                         _______ _______ _______ _____ _____    ______ ____
ROOT
ATOM      1  C   LIG    1       -2.606  -3.419  -2.308  0.00  0.00    +0.170 C 
ATOM      2  C   LIG    1       -1.508  -4.470  -2.134  0.00  0.00    +0.040 C 
ATOM      3  C   LIG    1       -1.534  -5.436  -3.321  0.00  0.00    +0.030 C 
ATOM      4  C   LIG    1       -2.897  -6.128  -3.385  0.00  0.00    +0.020 C 
ATOM      5  C   LIG    1       -3.995  -5.077  -3.559  0.00  0.00    +0.050 C 
ATOM      6  C   LIG    1       -3.969  -4.112  -2.372  0.00  0.00    -0.010 C 
ENDROOT
BRANCH   1   7
ATOM      7  N   LIG    1       -2.581  -2.493  -1.168  0.00  0.00    -0.510 N 
ATOM      8  H   LIG    1       -3.355  -1.850  -1.240  0.00  0.00    +0.430 HD
ATOM      9  H   LIG    1       -2.656  -3.015  -0.308  0.00  0.00    +0.430 HD
BRANCH   7  10
ATOM     10  C   LIG    1       -1.319  -1.741  -1.176  0.00  0.00    +0.250 C 
BRANCH  10  11
ATOM     11  C   LIG    1       -1.293  -0.775   0.010  0.00  0.00    +0.060 C 
BRANCH  11  13
ATOM     12  C   LIG    1       -0.016   1.306   0.009  0.00  0.00    +0.060 C 
ATOM     13  C   LIG    1        0.002  -0.004   0.002  0.00  0.00    -0.070 C 
ENDBRANCH  11  13
ENDBRANCH  10  11
ENDBRANCH   7  10
ENDBRANCH   1   7
BRANCH   6  14
ATOM     14  C   LIG    1       -5.067  -3.061  -2.545  0.00  0.00    +0.000 C 
BRANCH  14  15
ATOM     15  C   LIG    1       -6.437  -3.740  -2.485  0.00  0.00    +0.010 C 
ATOM     16  C   LIG    1       -7.535  -2.689  -2.658  0.00  0.00    +0.010 C 
ENDBRANCH  14  15
ENDBRANCH   6  14
TORSDOF 6
ENDMDL
MODEL      176
REMARK  Name = ZINC000308582868
REMARK                            x       y       z     vdW  Elec       q    Type
REMARK                         _______ _______ _______ _____ _____    ______ ____
ROOT
ATOM      1  C   LIG    1       -2.606  -3.419  -2.308  0.00  0.00    +0.170 C 
ATOM      2  C   LIG    1       -2.618  -2.622  -3.614  0.00  0.00    +0.040 C 
ATOM      3  C   LIG    1       -2.644  -3.588  -4.800  0.00  0.00    +0.030 C 
ATOM      4  C   LIG    1       -3.900  -4.458  -4.722  0.00  0.00    +0.020 C 
ATOM      5  C   LIG    1       -3.888  -5.255  -3.416  0.00  0.00    +0.050 C 
ATOM      6  C   LIG    1       -3.862  -4.290  -2.230  0.00  0.00    -0.010 C 
ENDROOT
BRANCH   1   7
ATOM      7  N   LIG    1       -2.581  -2.493  -1.168  0.00  0.00    -0.510 N 
ATOM      8  H   LIG    1       -3.355  -1.850  -1.240  0.00  0.00    +0.430 HD
ATOM      9  H   LIG    1       -2.656  -3.015  -0.308  0.00  0.00    +0.430 HD
BRANCH   7  10
ATOM     10  C   LIG    1       -1.319  -1.741  -1.176  0.00  0.00    +0.250 C 
BRANCH  10  11
ATOM     11  C   LIG    1       -1.293  -0.775   0.010  0.00  0.00    +0.060 C 
BRANCH  11  13
ATOM     12  C   LIG    1       -0.016   1.306   0.009  0.00  0.00    +0.060 C 
ATOM     13  C   LIG    1        0.002  -0.004   0.002  0.00  0.00    -0.070 C 
ENDBRANCH  11  13
ENDBRANCH  10  11
ENDBRANCH   7  10
ENDBRANCH   1   7
BRANCH   6  14
ATOM     14  C   LIG    1       -3.850  -5.087  -0.924  0.00  0.00    +0.000 C 
BRANCH  14  15
ATOM     15  C   LIG    1       -5.162  -5.861  -0.787  0.00  0.00    +0.010 C 
ATOM     16  C   LIG    1       -5.151  -6.658   0.519  0.00  0.00    +0.010 C 
ENDBRANCH  14  15
ENDBRANCH   6  14
TORSDOF 6
ENDMDL
MODEL      177
REMARK  Name = ZINC000308582870
REMARK                            x       y       z     vdW  Elec       q    Type
REMARK                         _______ _______ _______ _____ _____    ______ ____
ROOT
ATOM      1  C   LIG    1       -2.606  -3.419  -2.308  0.00  0.00    +0.170 C 
ATOM      2  C   LIG    1       -2.618  -2.622  -3.614  0.00  0.00    +0.060 C 
ATOM      3  C   LIG    1       -3.860  -1.730  -3.655  0.00  0.00    +0.010 C 
ATOM      4  C   LIG    1       -5.116  -2.600  -3.577  0.00  0.00    +0.030 C 
ATOM      5  C   LIG    1       -5.104  -3.397  -2.271  0.00  0.00    +0.020 C 
ATOM      6  C   LIG    1       -3.862  -4.290  -2.230  0.00  0.00    +0.010 C 
ENDROOT
BRANCH   1   7
ATOM      7  N   LIG    1       -2.581  -2.493  -1.168  0.00  0.00    -0.510 N 
ATOM      8  H   LIG    1       -3.355  -1.850  -1.240  0.00  0.00    +0.420 HD
ATOM      9  H   LIG    1       -2.656  -3.015  -0.308  0.00  0.00    +0.420 HD
BRANCH   7  10
ATOM     10  C   LIG    1       -1.319  -1.741  -1.176  0.00  0.00    +0.250 C 
BRANCH  10  11
ATOM     11  C   LIG    1       -1.293  -0.775   0.010  0.00  0.00    +0.060 C 
BRANCH  11  13
ATOM     12  C   LIG    1       -0.016   1.306   0.009  0.00  0.00    +0.060 C 
ATOM     13  C   LIG    1        0.002  -0.004   0.002  0.00  0.00    -0.060 C 
ENDBRANCH  11  13
ENDBRANCH  10  11
ENDBRANCH   7  10
ENDBRANCH   1   7
BRANCH   6  14
ATOM     14  C   LIG    1       -3.850  -5.087  -0.924  0.00  0.00    +0.010 C 
BRANCH  14  15
ATOM     15  C   LIG    1       -5.040  -6.048  -0.902  0.00  0.00    +0.020 C 
ATOM     16  C   LIG    1       -5.028  -6.845   0.404  0.00  0.00    +0.010 C 
ENDBRANCH  14  15
ENDBRANCH   6  14
TORSDOF 6
ENDMDL
MODEL      178
REMARK  Name = ZINC000308582869
REMARK                            x       y       z     vdW  Elec       q    Type
REMARK                         _______ _______ _______ _____ _____    ______ ____
ROOT
ATOM      1  C   LIG    1       -2.606  -3.419  -2.308  0.00  0.00    +0.170 C 
ATOM      2  C   LIG    1       -1.508  -4.470  -2.134  0.00  0.00    +0.060 C 
ATOM      3  C   LIG    1       -1.746  -5.248  -0.839  0.00  0.00    +0.010 C 
ATOM      4  C   LIG    1       -3.109  -5.941  -0.903  0.00  0.00    +0.030 C 
ATOM      5  C   LIG    1       -4.207  -4.890  -1.076  0.00  0.00    +0.020 C 
ATOM      6  C   LIG    1       -3.969  -4.112  -2.372  0.00  0.00    +0.010 C 
ENDROOT
BRANCH   1   7
ATOM      7  N   LIG    1       -2.581  -2.493  -1.168  0.00  0.00    -0.510 N 
ATOM      8  H   LIG    1       -3.355  -1.850  -1.240  0.00  0.00    +0.420 HD
ATOM      9  H   LIG    1       -2.656  -3.015  -0.308  0.00  0.00    +0.420 HD
BRANCH   7  10
ATOM     10  C   LIG    1       -1.319  -1.741  -1.176  0.00  0.00    +0.250 C 
BRANCH  10  11
ATOM     11  C   LIG    1       -1.293  -0.775   0.010  0.00  0.00    +0.060 C 
BRANCH  11  13
ATOM     12  C   LIG    1       -0.016   1.306   0.009  0.00  0.00    +0.060 C 
ATOM     13  C   LIG    1        0.002  -0.004   0.002  0.00  0.00    -0.060 C 
ENDBRANCH  11  13
ENDBRANCH  10  11
ENDBRANCH   7  10
ENDBRANCH   1   7
BRANCH   6  14
ATOM     14  C   LIG    1       -5.067  -3.061  -2.545  0.00  0.00    +0.010 C 
BRANCH  14  15
ATOM     15  C   LIG    1       -6.415  -3.759  -2.735  0.00  0.00    +0.020 C 
ATOM     16  C   LIG    1       -7.514  -2.708  -2.908  0.00  0.00    +0.010 C 
ENDBRANCH  14  15
ENDBRANCH   6  14
TORSDOF 6
ENDMDL
MODEL      179
REMARK  Name = ZINC000308590064
REMARK                            x       y       z     vdW  Elec       q    Type
REMARK                         _______ _______ _______ _____ _____    ______ ____
ROOT
ATOM      1  C   LIG    1        2.981  -1.809   1.344  0.00  0.00    +0.170 C 
ATOM      2  C   LIG    1        2.809  -3.144   0.617  0.00  0.00    +0.060 C 
ATOM      3  C   LIG    1        1.761  -3.989   1.344  0.00  0.00    +0.010 C 
ATOM      4  C   LIG    1        2.220  -4.246   2.780  0.00  0.00    +0.030 C 
ATOM      5  C   LIG    1        2.392  -2.910   3.507  0.00  0.00    +0.020 C 
ATOM      6  C   LIG    1        3.440  -2.065   2.780  0.00  0.00    +0.010 C 
ENDROOT
BRANCH   1   7
ATOM      7  N   LIG    1        1.699  -1.091   1.360  0.00  0.00    -0.510 N 
ATOM      8  H   LIG    1        0.988  -1.682   1.765  0.00  0.00    +0.420 HD
ATOM      9  H   LIG    1        1.791  -0.250   1.909  0.00  0.00    +0.420 HD
BRANCH   7  10
ATOM     10  C   LIG    1        1.317  -0.740  -0.015  0.00  0.00    +0.300 C 
BRANCH  10  12
ATOM     11  C   LIG    1       -0.016   1.306   0.009  0.00  0.00    +0.120 C 
ATOM     12  C   LIG    1        0.002  -0.004   0.002  0.00  0.00    -0.200 C 
ATOM     13  C   LIG    1       -1.293  -0.775   0.010  0.00  0.00    +0.100 C 
ENDBRANCH  10  12
ENDBRANCH   7  10
ENDBRANCH   1   7
BRANCH   6  14
ATOM     14  C   LIG    1        3.611  -0.730   3.507  0.00  0.00    +0.010 C 
BRANCH  14  15
ATOM     15  C   LIG    1        4.189  -0.979   4.902  0.00  0.00    +0.020 C 
ATOM     16  C   LIG    1        4.360   0.356   5.629  0.00  0.00    +0.010 C 
ENDBRANCH  14  15
ENDBRANCH   6  14
TORSDOF 5
ENDMDL
MODEL      180
REMARK  Name = ZINC000308590066
REMARK                            x       y       z     vdW  Elec       q    Type
REMARK                         _______ _______ _______ _____ _____    ______ ____
ROOT
ATOM      1  C   LIG    1        2.981  -1.809   1.344  0.00  0.00    +0.170 C 
ATOM      2  C   LIG    1        4.083  -0.872   0.845  0.00  0.00    +0.040 C 
ATOM      3  C   LIG    1        5.418  -1.619   0.828  0.00  0.00    +0.030 C 
ATOM      4  C   LIG    1        5.754  -2.094   2.243  0.00  0.00    +0.020 C 
ATOM      5  C   LIG    1        4.652  -3.031   2.742  0.00  0.00    +0.060 C 
ATOM      6  C   LIG    1        3.317  -2.284   2.759  0.00  0.00    -0.010 C 
ENDROOT
BRANCH   1   7
ATOM      7  N   LIG    1        1.699  -1.091   1.360  0.00  0.00    -0.510 N 
ATOM      8  H   LIG    1        0.988  -1.682   1.765  0.00  0.00    +0.430 HD
ATOM      9  H   LIG    1        1.791  -0.250   1.909  0.00  0.00    +0.420 HD
BRANCH   7  10
ATOM     10  C   LIG    1        1.317  -0.740  -0.015  0.00  0.00    +0.310 C 
BRANCH  10  12
ATOM     11  C   LIG    1       -0.016   1.306   0.009  0.00  0.00    +0.120 C 
ATOM     12  C   LIG    1        0.002  -0.004   0.002  0.00  0.00    -0.200 C 
ATOM     13  C   LIG    1       -1.293  -0.775   0.010  0.00  0.00    +0.100 C 
ENDBRANCH  10  12
ENDBRANCH   7  10
ENDBRANCH   1   7
BRANCH   6  14
ATOM     14  C   LIG    1        2.215  -3.220   3.257  0.00  0.00    +0.000 C 
BRANCH  14  15
ATOM     15  C   LIG    1        2.487  -3.597   4.715  0.00  0.00    +0.010 C 
ATOM     16  C   LIG    1        1.385  -4.533   5.214  0.00  0.00    +0.010 C 
ENDBRANCH  14  15
ENDBRANCH   6  14
TORSDOF 5
ENDMDL
MODEL      181
REMARK  Name = ZINC000308590063
REMARK                            x       y       z     vdW  Elec       q    Type
REMARK                         _______ _______ _______ _____ _____    ______ ____
ROOT
ATOM      1  C   LIG    1        2.981  -1.809   1.344  0.00  0.00    +0.170 C 
ATOM      2  C   LIG    1        4.083  -0.872   0.845  0.00  0.00    +0.060 C 
ATOM      3  C   LIG    1        4.186   0.336   1.778  0.00  0.00    +0.010 C 
ATOM      4  C   LIG    1        4.522  -0.139   3.192  0.00  0.00    +0.030 C 
ATOM      5  C   LIG    1        3.420  -1.075   3.691  0.00  0.00    +0.020 C 
ATOM      6  C   LIG    1        3.317  -2.284   2.759  0.00  0.00    +0.010 C 
ENDROOT
BRANCH   1   7
ATOM      7  N   LIG    1        1.699  -1.091   1.360  0.00  0.00    -0.510 N 
ATOM      8  H   LIG    1        0.988  -1.682   1.765  0.00  0.00    +0.420 HD
ATOM      9  H   LIG    1        1.791  -0.250   1.909  0.00  0.00    +0.420 HD
BRANCH   7  10
ATOM     10  C   LIG    1        1.317  -0.740  -0.015  0.00  0.00    +0.310 C 
BRANCH  10  12
ATOM     11  C   LIG    1       -0.016   1.306   0.009  0.00  0.00    +0.120 C 
ATOM     12  C   LIG    1        0.002  -0.004   0.002  0.00  0.00    -0.200 C 
ATOM     13  C   LIG    1       -1.293  -0.775   0.010  0.00  0.00    +0.100 C 
ENDBRANCH  10  12
ENDBRANCH   7  10
ENDBRANCH   1   7
BRANCH   6  14
ATOM     14  C   LIG    1        2.215  -3.220   3.257  0.00  0.00    +0.010 C 
BRANCH  14  15
ATOM     15  C   LIG    1        2.611  -3.793   4.620  0.00  0.00    +0.020 C 
ATOM     16  C   LIG    1        1.509  -4.730   5.119  0.00  0.00    +0.010 C 
ENDBRANCH  14  15
ENDBRANCH   6  14
TORSDOF 5
ENDMDL
MODEL      182
REMARK  Name = ZINC000308590062
REMARK                            x       y       z     vdW  Elec       q    Type
REMARK                         _______ _______ _______ _____ _____    ______ ____
ROOT
ATOM      1  C   LIG    1        2.981  -1.809   1.344  0.00  0.00    +0.170 C 
ATOM      2  C   LIG    1        2.809  -3.144   0.617  0.00  0.00    +0.040 C 
ATOM      3  C   LIG    1        4.144  -3.891   0.600  0.00  0.00    +0.030 C 
ATOM      4  C   LIG    1        4.603  -4.148   2.037  0.00  0.00    +0.020 C 
ATOM      5  C   LIG    1        4.775  -2.812   2.764  0.00  0.00    +0.050 C 
ATOM      6  C   LIG    1        3.440  -2.065   2.780  0.00  0.00    -0.010 C 
ENDROOT
BRANCH   1   7
ATOM      7  N   LIG    1        1.699  -1.091   1.360  0.00  0.00    -0.510 N 
ATOM      8  H   LIG    1        0.988  -1.682   1.765  0.00  0.00    +0.420 HD
ATOM      9  H   LIG    1        1.791  -0.250   1.909  0.00  0.00    +0.420 HD
BRANCH   7  10
ATOM     10  C   LIG    1        1.317  -0.740  -0.015  0.00  0.00    +0.300 C 
BRANCH  10  12
ATOM     11  C   LIG    1       -0.016   1.306   0.009  0.00  0.00    +0.120 C 
ATOM     12  C   LIG    1        0.002  -0.004   0.002  0.00  0.00    -0.200 C 
ATOM     13  C   LIG    1       -1.293  -0.775   0.010  0.00  0.00    +0.100 C 
ENDBRANCH  10  12
ENDBRANCH   7  10
ENDBRANCH   1   7
BRANCH   6  14
ATOM     14  C   LIG    1        3.611  -0.730   3.507  0.00  0.00    +0.000 C 
BRANCH  14  15
ATOM     15  C   LIG    1        3.949  -0.989   4.977  0.00  0.00    +0.010 C 
ATOM     16  C   LIG    1        4.120   0.346   5.704  0.00  0.00    +0.010 C 
ENDBRANCH  14  15
ENDBRANCH   6  14
TORSDOF 5
ENDMDL
MODEL      183
REMARK  Name = ZINC000308597102
REMARK                            x       y       z     vdW  Elec       q    Type
REMARK                         _______ _______ _______ _____ _____    ______ ____
ROOT
ATOM      1  N   LIG    1        4.039  -4.159   2.305  0.00  0.00    -0.510 N 
ATOM      2  H   LIG    1        4.796  -3.496   2.384  0.00  0.00    +0.420 HD
ATOM      3  H   LIG    1        4.128  -4.669   1.439  0.00  0.00    +0.430 HD
ENDROOT
BRANCH   1   4
ATOM      4  C   LIG    1        4.090  -5.097   3.434  0.00  0.00    +0.170 C 
ATOM      5  C   LIG    1        4.080  -4.314   4.748  0.00  0.00    +0.090 C 
BRANCH   4   6
ATOM      6  C   LIG    1        5.369  -5.932   3.346  0.00  0.00    -0.010 C 
ATOM      7  C   LIG    1        6.585  -5.021   3.523  0.00  0.00    +0.040 C 
BRANCH   6   8
ATOM      8  C   LIG    1        5.362  -6.992   4.449  0.00  0.00    +0.080 C 
BRANCH   8   9
ATOM      9  C   LIG    1        6.560  -7.892   4.288  0.00  0.00    -0.070 C 
ATOM     10  C   LIG    1        7.392  -8.060   5.286  0.00  0.00    +0.030 C 
ENDBRANCH   8   9
ENDBRANCH   6   8
ENDBRANCH   4   6
ENDBRANCH   1   4
BRANCH   1  11
ATOM     11  C   LIG    1        2.757  -3.441   2.321  0.00  0.00    +0.250 C 
BRANCH  11  12
ATOM     12  C   LIG    1        2.705  -2.464   1.145  0.00  0.00    +0.030 C 
BRANCH  12  13
ATOM     13  C   LIG    1        1.370  -1.717   1.161  0.00  0.00    +0.050 C 
BRANCH  13  14
ATOM     14  C   LIG    1        1.317  -0.740  -0.015  0.00  0.00    +0.060 C 
BRANCH  14  16
ATOM     15  C   LIG    1       -0.016   1.306   0.009  0.00  0.00    +0.020 C 
ATOM     16  C   LIG    1        0.002  -0.004   0.002  0.00  0.00    -0.060 C 
ENDBRANCH  14  16
ENDBRANCH  13  14
ENDBRANCH  12  13
ENDBRANCH  11  12
ENDBRANCH   1  11
TORSDOF 9
ENDMDL
MODEL      184
REMARK  Name = ZINC000308597101
REMARK                            x       y       z     vdW  Elec       q    Type
REMARK                         _______ _______ _______ _____ _____    ______ ____
ROOT
ATOM      1  N   LIG    1        4.039  -4.159   2.305  0.00  0.00    -0.510 N 
ATOM      2  H   LIG    1        4.796  -3.496   2.384  0.00  0.00    +0.430 HD
ATOM      3  H   LIG    1        4.128  -4.669   1.439  0.00  0.00    +0.420 HD
ENDROOT
BRANCH   1   4
ATOM      4  C   LIG    1        4.090  -5.097   3.434  0.00  0.00    +0.170 C 
ATOM      5  C   LIG    1        3.020  -6.175   3.248  0.00  0.00    +0.090 C 
BRANCH   4   6
ATOM      6  C   LIG    1        5.471  -5.753   3.490  0.00  0.00    -0.010 C 
ATOM      7  C   LIG    1        5.730  -6.510   2.186  0.00  0.00    +0.050 C 
BRANCH   6   8
ATOM      8  C   LIG    1        5.523  -6.730   4.667  0.00  0.00    +0.080 C 
BRANCH   8   9
ATOM      9  C   LIG    1        6.919  -7.284   4.798  0.00  0.00    -0.070 C 
ATOM     10  C   LIG    1        7.559  -7.182   5.936  0.00  0.00    +0.030 C 
ENDBRANCH   8   9
ENDBRANCH   6   8
ENDBRANCH   4   6
ENDBRANCH   1   4
BRANCH   1  11
ATOM     11  C   LIG    1        2.757  -3.441   2.321  0.00  0.00    +0.250 C 
BRANCH  11  12
ATOM     12  C   LIG    1        2.705  -2.464   1.145  0.00  0.00    +0.030 C 
BRANCH  12  13
ATOM     13  C   LIG    1        1.370  -1.717   1.161  0.00  0.00    +0.050 C 
BRANCH  13  14
ATOM     14  C   LIG    1        1.317  -0.740  -0.015  0.00  0.00    +0.060 C 
BRANCH  14  16
ATOM     15  C   LIG    1       -0.016   1.306   0.009  0.00  0.00    +0.020 C 
ATOM     16  C   LIG    1        0.002  -0.004   0.002  0.00  0.00    -0.060 C 
ENDBRANCH  14  16
ENDBRANCH  13  14
ENDBRANCH  12  13
ENDBRANCH  11  12
ENDBRANCH   1  11
TORSDOF 9
ENDMDL
MODEL      185
REMARK  Name = ZINC000308597103
REMARK                            x       y       z     vdW  Elec       q    Type
REMARK                         _______ _______ _______ _____ _____    ______ ____
ROOT
ATOM      1  N   LIG    1        4.039  -4.159   2.305  0.00  0.00    -0.510 N 
ATOM      2  H   LIG    1        4.796  -3.496   2.384  0.00  0.00    +0.430 HD
ATOM      3  H   LIG    1        4.128  -4.669   1.439  0.00  0.00    +0.430 HD
ENDROOT
BRANCH   1   4
ATOM      4  C   LIG    1        4.090  -5.097   3.434  0.00  0.00    +0.170 C 
ATOM      5  C   LIG    1        3.020  -6.175   3.248  0.00  0.00    +0.080 C 
BRANCH   4   6
ATOM      6  C   LIG    1        5.471  -5.753   3.490  0.00  0.00    -0.010 C 
ATOM      7  C   LIG    1        6.540  -4.674   3.676  0.00  0.00    +0.040 C 
BRANCH   6   8
ATOM      8  C   LIG    1        5.523  -6.730   4.667  0.00  0.00    +0.080 C 
BRANCH   8   9
ATOM      9  C   LIG    1        6.838  -7.466   4.650  0.00  0.00    -0.070 C 
ATOM     10  C   LIG    1        7.610  -7.453   5.709  0.00  0.00    +0.030 C 
ENDBRANCH   8   9
ENDBRANCH   6   8
ENDBRANCH   4   6
ENDBRANCH   1   4
BRANCH   1  11
ATOM     11  C   LIG    1        2.757  -3.441   2.321  0.00  0.00    +0.250 C 
BRANCH  11  12
ATOM     12  C   LIG    1        2.705  -2.464   1.145  0.00  0.00    +0.030 C 
BRANCH  12  13
ATOM     13  C   LIG    1        1.370  -1.717   1.161  0.00  0.00    +0.050 C 
BRANCH  13  14
ATOM     14  C   LIG    1        1.317  -0.740  -0.015  0.00  0.00    +0.060 C 
BRANCH  14  16
ATOM     15  C   LIG    1       -0.016   1.306   0.009  0.00  0.00    +0.020 C 
ATOM     16  C   LIG    1        0.002  -0.004   0.002  0.00  0.00    -0.060 C 
ENDBRANCH  14  16
ENDBRANCH  13  14
ENDBRANCH  12  13
ENDBRANCH  11  12
ENDBRANCH   1  11
TORSDOF 9
ENDMDL
MODEL      186
REMARK  Name = ZINC000308596897
REMARK                            x       y       z     vdW  Elec       q    Type
REMARK                         _______ _______ _______ _____ _____    ______ ____
ROOT
ATOM      1  N   LIG    1        4.039  -4.159   2.305  0.00  0.00    -0.510 N 
ATOM      2  H   LIG    1        4.796  -3.496   2.384  0.00  0.00    +0.430 HD
ATOM      3  H   LIG    1        4.128  -4.669   1.439  0.00  0.00    +0.430 HD
ENDROOT
BRANCH   1   4
ATOM      4  C   LIG    1        4.090  -5.097   3.434  0.00  0.00    +0.170 C 
ATOM      5  C   LIG    1        4.080  -4.314   4.748  0.00  0.00    +0.080 C 
BRANCH   4   6
ATOM      6  C   LIG    1        5.369  -5.932   3.346  0.00  0.00    -0.010 C 
ATOM      7  C   LIG    1        5.378  -6.715   2.032  0.00  0.00    +0.040 C 
BRANCH   6   8
ATOM      8  C   LIG    1        5.421  -6.909   4.522  0.00  0.00    +0.070 C 
BRANCH   8   9
ATOM      9  C   LIG    1        6.736  -7.645   4.506  0.00  0.00    -0.070 C 
ATOM     10  C   LIG    1        7.508  -7.632   5.565  0.00  0.00    +0.030 C 
ENDBRANCH   8   9
ENDBRANCH   6   8
ENDBRANCH   4   6
ENDBRANCH   1   4
BRANCH   1  11
ATOM     11  C   LIG    1        2.757  -3.441   2.321  0.00  0.00    +0.250 C 
BRANCH  11  12
ATOM     12  C   LIG    1        2.705  -2.464   1.145  0.00  0.00    +0.030 C 
BRANCH  12  13
ATOM     13  C   LIG    1        1.370  -1.717   1.161  0.00  0.00    +0.050 C 
BRANCH  13  14
ATOM     14  C   LIG    1        1.317  -0.740  -0.015  0.00  0.00    +0.060 C 
BRANCH  14  16
ATOM     15  C   LIG    1       -0.016   1.306   0.009  0.00  0.00    +0.020 C 
ATOM     16  C   LIG    1        0.002  -0.004   0.002  0.00  0.00    -0.060 C 
ENDBRANCH  14  16
ENDBRANCH  13  14
ENDBRANCH  12  13
ENDBRANCH  11  12
ENDBRANCH   1  11
TORSDOF 9
ENDMDL
MODEL      187
REMARK  Name = ZINC000308604018
REMARK                            x       y       z     vdW  Elec       q    Type
REMARK                         _______ _______ _______ _____ _____    ______ ____
ROOT
ATOM      1  N   LIG    1       -1.433  -0.873  -2.334  0.00  0.00    -0.510 N 
ATOM      2  H   LIG    1       -0.603  -0.301  -2.379  0.00  0.00    +0.430 HD
ATOM      3  H   LIG    1       -2.244  -0.281  -2.228  0.00  0.00    +0.420 HD
ENDROOT
BRANCH   1   4
ATOM      4  C   LIG    1       -1.339  -1.785  -1.186  0.00  0.00    +0.170 C 
BRANCH   4   5
ATOM      5  C   LIG    1       -2.660  -2.539  -1.025  0.00  0.00    +0.030 C 
ATOM      6  C   LIG    1       -2.537  -3.542   0.124  0.00  0.00    +0.060 C 
ENDBRANCH   4   5
BRANCH   4   7
ATOM      7  C   LIG    1       -1.053  -0.979   0.083  0.00  0.00    +0.090 C 
BRANCH   7   9
ATOM      8  C   LIG    1        0.428   0.961   0.126  0.00  0.00    +0.060 C 
ATOM      9  C   LIG    1        0.304  -0.334  -0.027  0.00  0.00    -0.090 C 
ENDBRANCH   7   9
ENDBRANCH   4   7
ENDBRANCH   1   4
BRANCH   1  10
ATOM     10  C   LIG    1       -1.557  -1.655  -3.572  0.00  0.00    +0.250 C 
BRANCH  10  11
ATOM     11  C   LIG    1       -1.753  -0.707  -4.757  0.00  0.00    -0.020 C 
ATOM     12  C   LIG    1       -0.496   0.147  -4.940  0.00  0.00    +0.010 C 
ATOM     13  C   LIG    1       -0.692   1.095  -6.125  0.00  0.00    +0.020 C 
ATOM     14  C   LIG    1       -0.945   0.279  -7.395  0.00  0.00    +0.010 C 
ATOM     15  C   LIG    1       -2.201  -0.574  -7.211  0.00  0.00    +0.020 C 
ATOM     16  C   LIG    1       -2.005  -1.522  -6.026  0.00  0.00    +0.030 C 
ENDBRANCH  10  11
ENDBRANCH   1  10
TORSDOF 6
ENDMDL
MODEL      188
REMARK  Name = ZINC000308604020
REMARK                            x       y       z     vdW  Elec       q    Type
REMARK                         _______ _______ _______ _____ _____    ______ ____
ROOT
ATOM      1  N   LIG    1       -0.166  -2.746  -1.187  0.00  0.00    -0.510 N 
ATOM      2  H   LIG    1       -0.361  -3.459  -0.500  0.00  0.00    +0.420 HD
ATOM      3  H   LIG    1        0.695  -2.277  -0.950  0.00  0.00    +0.430 HD
ENDROOT
BRANCH   1   4
ATOM      4  C   LIG    1       -1.265  -1.772  -1.209  0.00  0.00    +0.170 C 
BRANCH   4   5
ATOM      5  C   LIG    1       -2.591  -2.504  -1.424  0.00  0.00    +0.030 C 
ATOM      6  C   LIG    1       -3.716  -1.481  -1.596  0.00  0.00    +0.060 C 
ENDBRANCH   4   5
BRANCH   4   7
ATOM      7  C   LIG    1       -1.306  -1.021   0.123  0.00  0.00    +0.100 C 
BRANCH   7   9
ATOM      8  C   LIG    1       -0.132   1.086   0.505  0.00  0.00    +0.090 C 
ATOM      9  C   LIG    1       -0.051  -0.202   0.278  0.00  0.00    -0.110 C 
ENDBRANCH   7   9
ENDBRANCH   4   7
ENDBRANCH   1   4
BRANCH   1  10
ATOM     10  C   LIG    1       -0.035  -3.367  -2.513  0.00  0.00    +0.250 C 
BRANCH  10  11
ATOM     11  C   LIG    1        1.194  -4.278  -2.530  0.00  0.00    -0.020 C 
ATOM     12  C   LIG    1        0.980  -5.441  -1.558  0.00  0.00    +0.010 C 
ATOM     13  C   LIG    1        2.209  -6.352  -1.576  0.00  0.00    +0.020 C 
ATOM     14  C   LIG    1        2.417  -6.901  -2.989  0.00  0.00    +0.010 C 
ATOM     15  C   LIG    1        2.630  -5.738  -3.961  0.00  0.00    +0.020 C 
ATOM     16  C   LIG    1        1.402  -4.827  -3.943  0.00  0.00    +0.030 C 
ENDBRANCH  10  11
ENDBRANCH   1  10
TORSDOF 6
ENDMDL
MODEL      189
REMARK  Name = ZINC000308617005
REMARK                            x       y       z     vdW  Elec       q    Type
REMARK                         _______ _______ _______ _____ _____    ______ ____
ROOT
ATOM      1  C   LIG    1        2.918  -1.911   1.335  0.00  0.00    +0.180 C 
ENDROOT
BRANCH   1   2
ATOM      2  C   LIG    1        2.656  -3.189   0.535  0.00  0.00    -0.030 C 
ATOM      3  C   LIG    1        2.908  -3.034  -0.974  0.00  0.00    +0.020 C 
ATOM      4  C   LIG    1        3.533  -4.438  -0.935  0.00  0.00    +0.030 C 
ATOM      5  C   LIG    1        3.835  -4.177   0.550  0.00  0.00    +0.040 C 
ENDBRANCH   1   2
BRANCH   1   6
ATOM      6  N   LIG    1        1.696  -1.097   1.369  0.00  0.00    -0.510 N 
ATOM      7  H   LIG    1        0.930  -1.652   1.721  0.00  0.00    +0.430 HD
ATOM      8  H   LIG    1        1.839  -0.301   1.972  0.00  0.00    +0.420 HD
BRANCH   6   9
ATOM      9  C   LIG    1        1.379  -0.632   0.012  0.00  0.00    +0.300 C 
BRANCH   9  11
ATOM     10  C   LIG    1        0.409   1.606   0.124  0.00  0.00    +0.120 C 
ATOM     11  C   LIG    1        0.206   0.313   0.065  0.00  0.00    -0.200 C 
ATOM     12  C   LIG    1       -1.200  -0.230   0.051  0.00  0.00    +0.100 C 
ENDBRANCH   9  11
ENDBRANCH   6   9
ENDBRANCH   1   6
BRANCH   1  13
ATOM     13  C   LIG    1        3.326  -2.278   2.763  0.00  0.00    +0.050 C 
BRANCH  13  14
ATOM     14  C   LIG    1        3.707  -1.008   3.526  0.00  0.00    +0.010 C 
BRANCH  14  15
ATOM     15  C   LIG    1        4.116  -1.375   4.955  0.00  0.00    +0.010 C 
ATOM     16  C   LIG    1        4.497  -0.105   5.718  0.00  0.00    +0.010 C 
ENDBRANCH  14  15
ENDBRANCH  13  14
ENDBRANCH   1  13
TORSDOF 7
ENDMDL
MODEL      190
REMARK  Name = ZINC000308617003
REMARK                            x       y       z     vdW  Elec       q    Type
REMARK                         _______ _______ _______ _____ _____    ______ ____
ROOT
ATOM      1  C   LIG    1        3.013  -1.739   1.250  0.00  0.00    +0.180 C 
ENDROOT
BRANCH   1   2
ATOM      2  C   LIG    1        4.053  -0.710   0.803  0.00  0.00    -0.020 C 
ATOM      3  C   LIG    1        5.233  -1.323   0.031  0.00  0.00    +0.040 C 
ATOM      4  C   LIG    1        5.162  -0.098  -0.896  0.00  0.00    +0.030 C 
ATOM      5  C   LIG    1        3.680   0.016  -0.501  0.00  0.00    +0.010 C 
ENDBRANCH   1   2
BRANCH   1   6
ATOM      6  N   LIG    1        1.737  -1.062   1.517  0.00  0.00    -0.500 N 
ATOM      7  H   LIG    1        1.412  -0.613   0.673  0.00  0.00    +0.430 HD
ATOM      8  H   LIG    1        1.054  -1.739   1.821  0.00  0.00    +0.420 HD
BRANCH   6   9
ATOM      9  C   LIG    1        1.928  -0.052   2.567  0.00  0.00    +0.310 C 
BRANCH   9  11
ATOM     10  C   LIG    1       -0.202   0.377   3.680  0.00  0.00    +0.120 C 
ATOM     11  C   LIG    1        0.653   0.729   2.751  0.00  0.00    -0.200 C 
ATOM     12  C   LIG    1        0.360   1.913   1.867  0.00  0.00    +0.100 C 
ENDBRANCH   9  11
ENDBRANCH   6   9
ENDBRANCH   1   6
BRANCH   1  13
ATOM     13  C   LIG    1        3.498  -2.433   2.525  0.00  0.00    +0.050 C 
BRANCH  13  14
ATOM     14  C   LIG    1        2.519  -3.547   2.902  0.00  0.00    +0.010 C 
BRANCH  14  15
ATOM     15  C   LIG    1        3.004  -4.241   4.177  0.00  0.00    +0.010 C 
ATOM     16  C   LIG    1        2.026  -5.355   4.555  0.00  0.00    +0.010 C 
ENDBRANCH  14  15
ENDBRANCH  13  14
ENDBRANCH   1  13
TORSDOF 7
ENDMDL
MODEL      191
REMARK  Name = ZINC000308622183
REMARK                            x       y       z     vdW  Elec       q    Type
REMARK                         _______ _______ _______ _____ _____    ______ ____
ROOT
ATOM      1  N   LIG    1        1.726  -4.605   2.137  0.00  0.00    -0.510 N 
ATOM      2  H   LIG    1        2.151  -5.046   1.334  0.00  0.00    +0.420 HD
ATOM      3  H   LIG    1        0.788  -4.314   1.905  0.00  0.00    +0.420 HD
ENDROOT
BRANCH   1   4
ATOM      4  C   LIG    1        2.520  -3.432   2.528  0.00  0.00    +0.170 C 
ATOM      5  C   LIG    1        4.005  -3.798   2.527  0.00  0.00    +0.080 C 
BRANCH   4   6
ATOM      6  C   LIG    1        2.273  -2.295   1.535  0.00  0.00    +0.050 C 
BRANCH   6   7
ATOM      7  C   LIG    1        0.814  -1.845   1.626  0.00  0.00    +0.010 C 
BRANCH   7   8
ATOM      8  C   LIG    1        0.568  -0.708   0.632  0.00  0.00    +0.070 C 
BRANCH   8  10
ATOM      9  C   LIG    1       -1.154   0.993   0.951  0.00  0.00    +0.030 C 
ATOM     10  C   LIG    1       -0.870  -0.265   0.722  0.00  0.00    -0.070 C 
ENDBRANCH   8  10
ENDBRANCH   7   8
ENDBRANCH   6   7
ENDBRANCH   4   6
ENDBRANCH   1   4
BRANCH   1  11
ATOM     11  C   LIG    1        1.681  -5.560   3.252  0.00  0.00    +0.200 C 
BRANCH  11  12
ATOM     12  C   LIG    1        3.074  -6.150   3.476  0.00  0.00    -0.070 C 
ATOM     13  C   LIG    1        3.749  -5.878   4.822  0.00  0.00    +0.050 C 
ATOM     14  C   LIG    1        3.209  -7.274   4.506  0.00  0.00    +0.070 C 
ENDBRANCH  11  12
BRANCH  11  15
ATOM     15  C   LIG    1        0.698  -6.685   2.921  0.00  0.00    +0.050 C 
ATOM     16  C   LIG    1       -0.717  -6.111   2.816  0.00  0.00    +0.030 C 
ENDBRANCH  11  15
ENDBRANCH   1  11
TORSDOF 8
ENDMDL
MODEL      192
REMARK  Name = ZINC000308622184
REMARK                            x       y       z     vdW  Elec       q    Type
REMARK                         _______ _______ _______ _____ _____    ______ ____
ROOT
ATOM      1  N   LIG    1        3.251  -2.432   3.626  0.00  0.00    -0.510 N 
ATOM      2  H   LIG    1        2.607  -1.705   3.899  0.00  0.00    +0.420 HD
ATOM      3  H   LIG    1        4.133  -2.019   3.363  0.00  0.00    +0.430 HD
ENDROOT
BRANCH   1   4
ATOM      4  C   LIG    1        2.699  -3.174   2.485  0.00  0.00    +0.170 C 
ATOM      5  C   LIG    1        3.745  -4.159   1.962  0.00  0.00    +0.080 C 
BRANCH   4   6
ATOM      6  C   LIG    1        2.321  -2.192   1.373  0.00  0.00    +0.050 C 
BRANCH   6   7
ATOM      7  C   LIG    1        1.186  -1.287   1.856  0.00  0.00    +0.010 C 
BRANCH   7   8
ATOM      8  C   LIG    1        0.809  -0.305   0.744  0.00  0.00    +0.060 C 
BRANCH   8  10
ATOM      9  C   LIG    1       -0.171   1.888   1.177  0.00  0.00    +0.020 C 
ATOM     10  C   LIG    1       -0.308   0.586   1.219  0.00  0.00    -0.060 C 
ENDBRANCH   8  10
ENDBRANCH   7   8
ENDBRANCH   6   7
ENDBRANCH   4   6
ENDBRANCH   1   4
BRANCH   1  11
ATOM     11  C   LIG    1        3.458  -3.351   4.754  0.00  0.00    +0.200 C 
BRANCH  11  12
ATOM     12  C   LIG    1        4.798  -4.070   4.586  0.00  0.00    -0.080 C 
ATOM     13  C   LIG    1        5.887  -3.784   5.622  0.00  0.00    +0.050 C 
ATOM     14  C   LIG    1        5.164  -5.133   5.625  0.00  0.00    +0.070 C 
ENDBRANCH  11  12
BRANCH  11  15
ATOM     15  C   LIG    1        3.464  -2.559   6.063  0.00  0.00    +0.050 C 
ATOM     16  C   LIG    1        2.079  -1.955   6.300  0.00  0.00    +0.040 C 
ENDBRANCH  11  15
ENDBRANCH   1  11
TORSDOF 8
ENDMDL
MODEL      193
REMARK  Name = ZINC000308622186
REMARK                            x       y       z     vdW  Elec       q    Type
REMARK                         _______ _______ _______ _____ _____    ______ ____
ROOT
ATOM      1  N   LIG    1        1.734  -4.677   2.248  0.00  0.00    -0.510 N 
ATOM      2  H   LIG    1        2.086  -5.186   1.450  0.00  0.00    +0.420 HD
ATOM      3  H   LIG    1        0.782  -4.392   2.072  0.00  0.00    +0.420 HD
ENDROOT
BRANCH   1   4
ATOM      4  C   LIG    1        2.567  -3.489   2.477  0.00  0.00    +0.160 C 
ATOM      5  C   LIG    1        4.033  -3.910   2.599  0.00  0.00    +0.090 C 
BRANCH   4   6
ATOM      6  C   LIG    1        2.410  -2.522   1.302  0.00  0.00    +0.050 C 
BRANCH   6   7
ATOM      7  C   LIG    1        0.971  -2.004   1.256  0.00  0.00    +0.010 C 
BRANCH   7   8
ATOM      8  C   LIG    1        0.814  -1.037   0.081  0.00  0.00    +0.060 C 
BRANCH   8  10
ATOM      9  C   LIG    1       -0.837   0.761   0.045  0.00  0.00    +0.030 C 
ATOM     10  C   LIG    1       -0.603  -0.527   0.036  0.00  0.00    -0.070 C 
ENDBRANCH   8  10
ENDBRANCH   7   8
ENDBRANCH   6   7
ENDBRANCH   4   6
ENDBRANCH   1   4
BRANCH   1  11
ATOM     11  C   LIG    1        1.775  -5.540   3.436  0.00  0.00    +0.200 C 
BRANCH  11  12
ATOM     12  C   LIG    1        1.101  -4.826   4.609  0.00  0.00    -0.090 C 
ATOM     13  C   LIG    1       -0.167  -5.459   5.187  0.00  0.00    +0.050 C 
ATOM     14  C   LIG    1        1.144  -5.515   5.974  0.00  0.00    +0.070 C 
ENDBRANCH  11  12
BRANCH  11  15
ATOM     15  C   LIG    1        1.036  -6.848   3.142  0.00  0.00    +0.050 C 
ATOM     16  C   LIG    1        1.793  -7.631   2.067  0.00  0.00    +0.030 C 
ENDBRANCH  11  15
ENDBRANCH   1  11
TORSDOF 8
ENDMDL
MODEL      194
REMARK  Name = ZINC000308622187
REMARK                            x       y       z     vdW  Elec       q    Type
REMARK                         _______ _______ _______ _____ _____    ______ ____
ROOT
ATOM      1  N   LIG    1        3.004  -2.755   3.644  0.00  0.00    -0.510 N 
ATOM      2  H   LIG    1        2.089  -2.340   3.741  0.00  0.00    +0.420 HD
ATOM      3  H   LIG    1        3.709  -2.037   3.723  0.00  0.00    +0.420 HD
ENDROOT
BRANCH   1   4
ATOM      4  C   LIG    1        3.111  -3.403   2.330  0.00  0.00    +0.160 C 
ATOM      5  C   LIG    1        4.543  -3.902   2.123  0.00  0.00    +0.090 C 
BRANCH   4   6
ATOM      6  C   LIG    1        2.757  -2.397   1.234  0.00  0.00    +0.050 C 
BRANCH   6   7
ATOM      7  C   LIG    1        1.288  -1.993   1.368  0.00  0.00    +0.010 C 
BRANCH   7   8
ATOM      8  C   LIG    1        0.934  -0.986   0.271  0.00  0.00    +0.060 C 
BRANCH   8  10
ATOM      9  C   LIG    1       -0.838   0.677   0.508  0.00  0.00    +0.020 C 
ATOM     10  C   LIG    1       -0.514  -0.588   0.403  0.00  0.00    -0.060 C 
ENDBRANCH   8  10
ENDBRANCH   7   8
ENDBRANCH   6   7
ENDBRANCH   4   6
ENDBRANCH   1   4
BRANCH   1  11
ATOM     11  C   LIG    1        3.202  -3.755   4.702  0.00  0.00    +0.200 C 
BRANCH  11  12
ATOM     12  C   LIG    1        2.051  -4.763   4.672  0.00  0.00    -0.090 C 
ATOM     13  C   LIG    1        2.376  -6.193   4.234  0.00  0.00    +0.050 C 
ATOM     14  C   LIG    1        2.075  -5.892   5.704  0.00  0.00    +0.070 C 
ENDBRANCH  11  12
BRANCH  11  15
ATOM     15  C   LIG    1        3.234  -3.058   6.063  0.00  0.00    +0.050 C 
ATOM     16  C   LIG    1        4.434  -2.110   6.122  0.00  0.00    +0.030 C 
ENDBRANCH  11  15
ENDBRANCH   1  11
TORSDOF 8
ENDMDL
MODEL      195
REMARK  Name = ZINC000308625685
REMARK                            x       y       z     vdW  Elec       q    Type
REMARK                         _______ _______ _______ _____ _____    ______ ____
ROOT
ATOM      1  N   LIG    1       -2.658  -3.451  -2.307  0.00  0.00    -0.510 N 
ATOM      2  H   LIG    1       -1.884  -4.093  -2.235  0.00  0.00    +0.420 HD
ATOM      3  H   LIG    1       -2.583  -2.929  -3.167  0.00  0.00    +0.430 HD
ENDROOT
BRANCH   1   4
ATOM      4  C   LIG    1       -3.920  -4.202  -2.299  0.00  0.00    +0.170 C 
ATOM      5  C   LIG    1       -3.978  -5.090  -1.054  0.00  0.00    +0.090 C 
BRANCH   4   6
ATOM      6  C   LIG    1       -4.001  -5.076  -3.553  0.00  0.00    -0.020 C 
ATOM      7  C   LIG    1       -2.899  -6.136  -3.507  0.00  0.00    +0.050 C 
BRANCH   6   8
ATOM      8  C   LIG    1       -5.367  -5.763  -3.608  0.00  0.00    +0.040 C 
BRANCH   8   9
ATOM      9  C   LIG    1       -5.496  -6.538  -4.921  0.00  0.00    +0.020 C 
BRANCH   9  10
ATOM     10  C   LIG    1       -6.862  -7.225  -4.976  0.00  0.00    -0.010 C 
ATOM     11  C   LIG    1       -6.991  -7.999  -6.290  0.00  0.00    +0.020 C 
ENDBRANCH   9  10
ENDBRANCH   8   9
ENDBRANCH   6   8
ENDBRANCH   4   6
ENDBRANCH   1   4
BRANCH   1  12
ATOM     12  C   LIG    1       -2.633  -2.524  -1.168  0.00  0.00    +0.250 C 
BRANCH  12  13
ATOM     13  C   LIG    1       -1.319  -1.741  -1.176  0.00  0.00    +0.040 C 
BRANCH  13  14
ATOM     14  C   LIG    1       -1.293  -0.775   0.010  0.00  0.00    +0.070 C 
BRANCH  14  16
ATOM     15  C   LIG    1       -0.016   1.306   0.009  0.00  0.00    +0.030 C 
ATOM     16  C   LIG    1        0.002  -0.004   0.002  0.00  0.00    -0.070 C 
ENDBRANCH  14  16
ENDBRANCH  13  14
ENDBRANCH  12  13
ENDBRANCH   1  12
TORSDOF 9
ENDMDL
MODEL      196
REMARK  Name = ZINC000308625720
REMARK                            x       y       z     vdW  Elec       q    Type
REMARK                         _______ _______ _______ _____ _____    ______ ____
ROOT
ATOM      1  N   LIG    1       -2.600  -3.538  -2.238  0.00  0.00    -0.510 N 
ATOM      2  H   LIG    1       -1.825  -4.180  -2.166  0.00  0.00    +0.420 HD
ATOM      3  H   LIG    1       -2.525  -3.016  -3.098  0.00  0.00    +0.420 HD
ENDROOT
BRANCH   1   4
ATOM      4  C   LIG    1       -2.575  -2.611  -1.099  0.00  0.00    +0.170 C 
ATOM      5  C   LIG    1       -2.563  -3.408   0.207  0.00  0.00    +0.080 C 
BRANCH   4   6
ATOM      6  C   LIG    1       -1.319  -1.741  -1.176  0.00  0.00    -0.010 C 
ATOM      7  C   LIG    1       -1.331  -0.944  -2.482  0.00  0.00    +0.040 C 
BRANCH   6   8
ATOM      8  C   LIG    1       -1.293  -0.775   0.010  0.00  0.00    +0.080 C 
BRANCH   8  10
ATOM      9  C   LIG    1       -0.016   1.306   0.009  0.00  0.00    +0.030 C 
ATOM     10  C   LIG    1        0.002  -0.004   0.002  0.00  0.00    -0.070 C 
ENDBRANCH   8  10
ENDBRANCH   6   8
ENDBRANCH   4   6
ENDBRANCH   1   4
BRANCH   1  11
ATOM     11  C   LIG    1       -3.862  -4.290  -2.230  0.00  0.00    +0.260 C 
BRANCH  11  12
ATOM     12  C   LIG    1       -3.888  -5.255  -3.416  0.00  0.00    -0.090 C 
ATOM     13  C   LIG    1       -2.713  -6.229  -3.307  0.00  0.00    +0.040 C 
ATOM     14  C   LIG    1       -3.774  -4.463  -4.721  0.00  0.00    +0.040 C 
BRANCH  12  15
ATOM     15  C   LIG    1       -5.202  -6.038  -3.408  0.00  0.00    +0.030 C 
ATOM     16  C   LIG    1       -5.229  -7.003  -4.595  0.00  0.00    +0.030 C 
ENDBRANCH  12  15
ENDBRANCH  11  12
ENDBRANCH   1  11
TORSDOF 7
ENDMDL
MODEL      197
REMARK  Name = ZINC000308625684
REMARK                            x       y       z     vdW  Elec       q    Type
REMARK                         _______ _______ _______ _____ _____    ______ ____
ROOT
ATOM      1  N   LIG    1       -2.658  -3.451  -2.307  0.00  0.00    -0.510 N 
ATOM      2  H   LIG    1       -1.884  -4.093  -2.235  0.00  0.00    +0.430 HD
ATOM      3  H   LIG    1       -2.583  -2.929  -3.167  0.00  0.00    +0.420 HD
ENDROOT
BRANCH   1   4
ATOM      4  C   LIG    1       -3.920  -4.202  -2.299  0.00  0.00    +0.170 C 
ATOM      5  C   LIG    1       -5.088  -3.242  -2.534  0.00  0.00    +0.080 C 
BRANCH   4   6
ATOM      6  C   LIG    1       -3.894  -5.254  -3.410  0.00  0.00    -0.010 C 
ATOM      7  C   LIG    1       -3.722  -4.562  -4.764  0.00  0.00    +0.040 C 
BRANCH   6   8
ATOM      8  C   LIG    1       -5.209  -6.037  -3.402  0.00  0.00    +0.030 C 
BRANCH   8   9
ATOM      9  C   LIG    1       -5.135  -7.169  -4.429  0.00  0.00    +0.020 C 
BRANCH   9  10
ATOM     10  C   LIG    1       -6.449  -7.952  -4.420  0.00  0.00    -0.010 C 
ATOM     11  C   LIG    1       -6.375  -9.084  -5.447  0.00  0.00    +0.020 C 
ENDBRANCH   9  10
ENDBRANCH   8   9
ENDBRANCH   6   8
ENDBRANCH   4   6
ENDBRANCH   1   4
BRANCH   1  12
ATOM     12  C   LIG    1       -2.633  -2.524  -1.168  0.00  0.00    +0.250 C 
BRANCH  12  13
ATOM     13  C   LIG    1       -1.319  -1.741  -1.176  0.00  0.00    +0.040 C 
BRANCH  13  14
ATOM     14  C   LIG    1       -1.293  -0.775   0.010  0.00  0.00    +0.070 C 
BRANCH  14  16
ATOM     15  C   LIG    1       -0.016   1.306   0.009  0.00  0.00    +0.030 C 
ATOM     16  C   LIG    1        0.002  -0.004   0.002  0.00  0.00    -0.070 C 
ENDBRANCH  14  16
ENDBRANCH  13  14
ENDBRANCH  12  13
ENDBRANCH   1  12
TORSDOF 9
ENDMDL
MODEL      198
REMARK  Name = ZINC000308625683
REMARK                            x       y       z     vdW  Elec       q    Type
REMARK                         _______ _______ _______ _____ _____    ______ ____
ROOT
ATOM      1  N   LIG    1       -2.658  -3.451  -2.307  0.00  0.00    -0.510 N 
ATOM      2  H   LIG    1       -1.884  -4.093  -2.235  0.00  0.00    +0.430 HD
ATOM      3  H   LIG    1       -2.583  -2.929  -3.167  0.00  0.00    +0.430 HD
ENDROOT
BRANCH   1   4
ATOM      4  C   LIG    1       -3.920  -4.202  -2.299  0.00  0.00    +0.170 C 
ATOM      5  C   LIG    1       -3.978  -5.090  -1.054  0.00  0.00    +0.080 C 
BRANCH   4   6
ATOM      6  C   LIG    1       -4.001  -5.076  -3.553  0.00  0.00    -0.010 C 
ATOM      7  C   LIG    1       -3.944  -4.189  -4.798  0.00  0.00    +0.040 C 
BRANCH   6   8
ATOM      8  C   LIG    1       -5.316  -5.859  -3.544  0.00  0.00    +0.030 C 
BRANCH   8   9
ATOM      9  C   LIG    1       -5.342  -6.825  -4.731  0.00  0.00    +0.020 C 
BRANCH   9  10
ATOM     10  C   LIG    1       -6.656  -7.608  -4.723  0.00  0.00    -0.010 C 
ATOM     11  C   LIG    1       -6.682  -8.573  -5.909  0.00  0.00    +0.020 C 
ENDBRANCH   9  10
ENDBRANCH   8   9
ENDBRANCH   6   8
ENDBRANCH   4   6
ENDBRANCH   1   4
BRANCH   1  12
ATOM     12  C   LIG    1       -2.633  -2.524  -1.168  0.00  0.00    +0.250 C 
BRANCH  12  13
ATOM     13  C   LIG    1       -1.319  -1.741  -1.176  0.00  0.00    +0.040 C 
BRANCH  13  14
ATOM     14  C   LIG    1       -1.293  -0.775   0.010  0.00  0.00    +0.070 C 
BRANCH  14  16
ATOM     15  C   LIG    1       -0.016   1.306   0.009  0.00  0.00    +0.030 C 
ATOM     16  C   LIG    1        0.002  -0.004   0.002  0.00  0.00    -0.070 C 
ENDBRANCH  14  16
ENDBRANCH  13  14
ENDBRANCH  12  13
ENDBRANCH   1  12
TORSDOF 9
ENDMDL
MODEL      199
REMARK  Name = ZINC000308625718
REMARK                            x       y       z     vdW  Elec       q    Type
REMARK                         _______ _______ _______ _____ _____    ______ ____
ROOT
ATOM      1  N   LIG    1       -2.707  -3.360  -2.380  0.00  0.00    -0.510 N 
ATOM      2  H   LIG    1       -2.038  -4.100  -2.226  0.00  0.00    +0.420 HD
ATOM      3  H   LIG    1       -2.468  -2.862  -3.224  0.00  0.00    +0.430 HD
ENDROOT
BRANCH   1   4
ATOM      4  C   LIG    1       -2.682  -2.433  -1.241  0.00  0.00    +0.170 C 
ATOM      5  C   LIG    1       -2.920  -3.211   0.055  0.00  0.00    +0.080 C 
BRANCH   4   6
ATOM      6  C   LIG    1       -1.319  -1.741  -1.176  0.00  0.00    -0.010 C 
ATOM      7  C   LIG    1       -0.220  -2.792  -1.003  0.00  0.00    +0.050 C 
BRANCH   6   8
ATOM      8  C   LIG    1       -1.293  -0.775   0.010  0.00  0.00    +0.090 C 
BRANCH   8  10
ATOM      9  C   LIG    1       -0.016   1.306   0.009  0.00  0.00    +0.030 C 
ATOM     10  C   LIG    1        0.002  -0.004   0.002  0.00  0.00    -0.070 C 
ENDBRANCH   8  10
ENDBRANCH   6   8
ENDBRANCH   4   6
ENDBRANCH   1   4
BRANCH   1  11
ATOM     11  C   LIG    1       -4.052  -3.935  -2.514  0.00  0.00    +0.250 C 
BRANCH  11  12
ATOM     12  C   LIG    1       -4.078  -4.901  -3.701  0.00  0.00    -0.090 C 
ATOM     13  C   LIG    1       -3.064  -6.023  -3.467  0.00  0.00    +0.040 C 
ATOM     14  C   LIG    1       -3.716  -4.145  -4.981  0.00  0.00    +0.040 C 
BRANCH  12  15
ATOM     15  C   LIG    1       -5.479  -5.499  -3.840  0.00  0.00    +0.030 C 
ATOM     16  C   LIG    1       -5.505  -6.465  -5.027  0.00  0.00    +0.030 C 
ENDBRANCH  12  15
ENDBRANCH  11  12
ENDBRANCH   1  11
TORSDOF 7
ENDMDL
MODEL      200
REMARK  Name = ZINC000308625721
REMARK                            x       y       z     vdW  Elec       q    Type
REMARK                         _______ _______ _______ _____ _____    ______ ____
ROOT
ATOM      1  N   LIG    1       -2.707  -3.360  -2.380  0.00  0.00    -0.510 N 
ATOM      2  H   LIG    1       -1.932  -4.003  -2.308  0.00  0.00    +0.420 HD
ATOM      3  H   LIG    1       -2.632  -2.838  -3.240  0.00  0.00    +0.420 HD
ENDROOT
BRANCH   1   4
ATOM      4  C   LIG    1       -2.682  -2.433  -1.241  0.00  0.00    +0.170 C 
ATOM      5  C   LIG    1       -3.780  -1.382  -1.414  0.00  0.00    +0.080 C 
BRANCH   4   6
ATOM      6  C   LIG    1       -1.319  -1.741  -1.176  0.00  0.00    -0.010 C 
ATOM      7  C   LIG    1       -0.220  -2.792  -1.003  0.00  0.00    +0.040 C 
BRANCH   6   8
ATOM      8  C   LIG    1       -1.293  -0.775   0.010  0.00  0.00    +0.070 C 
BRANCH   8  10
ATOM      9  C   LIG    1       -0.016   1.306   0.009  0.00  0.00    +0.030 C 
ATOM     10  C   LIG    1        0.002  -0.004   0.002  0.00  0.00    -0.070 C 
ENDBRANCH   8  10
ENDBRANCH   6   8
ENDBRANCH   4   6
ENDBRANCH   1   4
BRANCH   1  11
ATOM     11  C   LIG    1       -3.969  -4.112  -2.372  0.00  0.00    +0.250 C 
BRANCH  11  12
ATOM     12  C   LIG    1       -3.995  -5.077  -3.559  0.00  0.00    -0.090 C 
ATOM     13  C   LIG    1       -2.820  -6.051  -3.449  0.00  0.00    +0.040 C 
ATOM     14  C   LIG    1       -3.881  -4.285  -4.863  0.00  0.00    +0.040 C 
BRANCH  12  15
ATOM     15  C   LIG    1       -5.309  -5.860  -3.550  0.00  0.00    +0.030 C 
ATOM     16  C   LIG    1       -5.335  -6.826  -4.737  0.00  0.00    +0.030 C 
ENDBRANCH  12  15
ENDBRANCH  11  12
ENDBRANCH   1  11
TORSDOF 7
ENDMDL
MODEL      201
REMARK  Name = ZINC000308625686
REMARK                            x       y       z     vdW  Elec       q    Type
REMARK                         _______ _______ _______ _____ _____    ______ ____
ROOT
ATOM      1  N   LIG    1       -2.658  -3.451  -2.307  0.00  0.00    -0.510 N 
ATOM      2  H   LIG    1       -1.884  -4.093  -2.235  0.00  0.00    +0.430 HD
ATOM      3  H   LIG    1       -2.583  -2.929  -3.167  0.00  0.00    +0.430 HD
ENDROOT
BRANCH   1   4
ATOM      4  C   LIG    1       -3.920  -4.202  -2.299  0.00  0.00    +0.170 C 
ATOM      5  C   LIG    1       -5.088  -3.242  -2.534  0.00  0.00    +0.080 C 
BRANCH   4   6
ATOM      6  C   LIG    1       -3.894  -5.254  -3.410  0.00  0.00    -0.010 C 
ATOM      7  C   LIG    1       -2.727  -6.215  -3.176  0.00  0.00    +0.040 C 
BRANCH   6   8
ATOM      8  C   LIG    1       -5.209  -6.037  -3.402  0.00  0.00    +0.030 C 
BRANCH   8   9
ATOM      9  C   LIG    1       -5.235  -7.003  -4.589  0.00  0.00    +0.020 C 
BRANCH   9  10
ATOM     10  C   LIG    1       -6.550  -7.785  -4.580  0.00  0.00    -0.010 C 
ATOM     11  C   LIG    1       -6.576  -8.751  -5.767  0.00  0.00    +0.020 C 
ENDBRANCH   9  10
ENDBRANCH   8   9
ENDBRANCH   6   8
ENDBRANCH   4   6
ENDBRANCH   1   4
BRANCH   1  12
ATOM     12  C   LIG    1       -2.633  -2.524  -1.168  0.00  0.00    +0.250 C 
BRANCH  12  13
ATOM     13  C   LIG    1       -1.319  -1.741  -1.176  0.00  0.00    +0.040 C 
BRANCH  13  14
ATOM     14  C   LIG    1       -1.293  -0.775   0.010  0.00  0.00    +0.070 C 
BRANCH  14  16
ATOM     15  C   LIG    1       -0.016   1.306   0.009  0.00  0.00    +0.030 C 
ATOM     16  C   LIG    1        0.002  -0.004   0.002  0.00  0.00    -0.070 C 
ENDBRANCH  14  16
ENDBRANCH  13  14
ENDBRANCH  12  13
ENDBRANCH   1  12
TORSDOF 9
ENDMDL
MODEL      202
REMARK  Name = ZINC000308625719
REMARK                            x       y       z     vdW  Elec       q    Type
REMARK                         _______ _______ _______ _____ _____    ______ ____
ROOT
ATOM      1  N   LIG    1       -2.541  -3.617  -2.168  0.00  0.00    -0.510 N 
ATOM      2  H   LIG    1       -1.682  -4.144  -2.107  0.00  0.00    +0.430 HD
ATOM      3  H   LIG    1       -2.590  -3.156  -3.065  0.00  0.00    +0.420 HD
ENDROOT
BRANCH   1   4
ATOM      4  C   LIG    1       -2.575  -2.611  -1.099  0.00  0.00    +0.170 C 
ATOM      5  C   LIG    1       -3.816  -1.731  -1.265  0.00  0.00    +0.090 C 
BRANCH   4   6
ATOM      6  C   LIG    1       -1.319  -1.741  -1.176  0.00  0.00    -0.010 C 
ATOM      7  C   LIG    1       -1.331  -0.944  -2.482  0.00  0.00    +0.050 C 
BRANCH   6   8
ATOM      8  C   LIG    1       -1.293  -0.775   0.010  0.00  0.00    +0.080 C 
BRANCH   8  10
ATOM      9  C   LIG    1       -0.016   1.306   0.009  0.00  0.00    +0.030 C 
ATOM     10  C   LIG    1        0.002  -0.004   0.002  0.00  0.00    -0.060 C 
ENDBRANCH   8  10
ENDBRANCH   6   8
ENDBRANCH   4   6
ENDBRANCH   1   4
BRANCH   1  11
ATOM     11  C   LIG    1       -3.685  -4.527  -2.021  0.00  0.00    +0.250 C 
BRANCH  11  12
ATOM     12  C   LIG    1       -3.649  -5.575  -3.136  0.00  0.00    -0.090 C 
ATOM     13  C   LIG    1       -2.347  -6.373  -3.043  0.00  0.00    +0.040 C 
ATOM     14  C   LIG    1       -3.724  -4.877  -4.495  0.00  0.00    +0.040 C 
BRANCH  12  15
ATOM     15  C   LIG    1       -4.840  -6.522  -2.983  0.00  0.00    +0.030 C 
ATOM     16  C   LIG    1       -4.805  -7.570  -4.097  0.00  0.00    +0.030 C 
ENDBRANCH  12  15
ENDBRANCH  11  12
ENDBRANCH   1  11
TORSDOF 7
ENDMDL
MODEL      203
REMARK  Name = ZINC001172360470
REMARK                            x       y       z     vdW  Elec       q    Type
REMARK                         _______ _______ _______ _____ _____    ______ ____
ROOT
ATOM      1  C   LIG    1        2.273  -6.184  -3.837  0.00  0.00    +0.170 C 
ENDROOT
BRANCH   1   2
ATOM      2  N   LIG    1        0.836  -6.486  -3.852  0.00  0.00    -0.480 N 
ATOM      3  H   LIG    1        0.390  -6.038  -3.065  0.00  0.00    +0.430 HD
ATOM      4  H   LIG    1        0.701  -7.484  -3.791  0.00  0.00    +0.420 HD
BRANCH   2   5
ATOM      5  C   LIG    1        0.243  -5.987  -5.100  0.00  0.00    +0.090 C 
ATOM      6  C   LIG    1       -0.350  -7.018  -6.062  0.00  0.00    +0.100 C 
ATOM      7  C   LIG    1       -1.274  -6.102  -5.257  0.00  0.00    +0.100 C 
ENDBRANCH   2   5
ENDBRANCH   1   2
BRANCH   1   8
ATOM      8  C   LIG    1        2.926  -6.749  -5.100  0.00  0.00    +0.050 C 
ATOM      9  C   LIG    1        2.846  -8.277  -5.075  0.00  0.00    +0.030 C 
ENDBRANCH   1   8
BRANCH   1  10
ATOM     10  C   LIG    1        2.475  -4.668  -3.794  0.00  0.00    +0.050 C 
BRANCH  10  11
ATOM     11  C   LIG    1        1.945  -4.120  -2.467  0.00  0.00    +0.010 C 
BRANCH  11  12
ATOM     12  C   LIG    1        2.147  -2.604  -2.424  0.00  0.00    +0.020 C 
BRANCH  12  13
ATOM     13  C   LIG    1        1.616  -2.057  -1.097  0.00  0.00    +0.000 C 
BRANCH  13  14
ATOM     14  C   LIG    1        1.819  -0.541  -1.054  0.00  0.00    +0.000 C 
BRANCH  14  16
ATOM     15  C   LIG    1        1.490   1.523   0.316  0.00  0.00    +0.000 C 
ATOM     16  C   LIG    1        1.288   0.007   0.273  0.00  0.00    -0.010 C 
ENDBRANCH  14  16
ENDBRANCH  13  14
ENDBRANCH  12  13
ENDBRANCH  11  12
ENDBRANCH  10  11
ENDBRANCH   1  10
TORSDOF 9
ENDMDL
MODEL      204
REMARK  Name = ZINC000308645577
REMARK                            x       y       z     vdW  Elec       q    Type
REMARK                         _______ _______ _______ _____ _____    ______ ____
ROOT
ATOM      1  C   LIG    1       -2.682  -2.274  -1.246  0.00  0.00    +0.240 C 
ENDROOT
BRANCH   1   2
ATOM      2  N   LIG    1       -1.370  -1.614  -1.193  0.00  0.00    -0.510 N 
ATOM      3  H   LIG    1       -0.643  -2.313  -1.163  0.00  0.00    +0.430 HD
ATOM      4  H   LIG    1       -1.250  -1.039  -2.013  0.00  0.00    +0.430 HD
BRANCH   2   5
ATOM      5  C   LIG    1       -1.293  -0.775   0.010  0.00  0.00    +0.200 C 
ATOM      6  C   LIG    1       -1.350  -1.663   1.255  0.00  0.00    +0.090 C 
BRANCH   5   8
ATOM      7  C   LIG    1       -0.016   1.306   0.009  0.00  0.00    +0.130 C 
ATOM      8  C   LIG    1        0.002  -0.004   0.002  0.00  0.00    -0.100 C 
ENDBRANCH   5   8
ENDBRANCH   2   5
ENDBRANCH   1   2
BRANCH   1   9
ATOM      9  C   LIG    1       -2.763  -3.148  -2.499  0.00  0.00    +0.040 C 
BRANCH   9  10
ATOM     10  C   LIG    1       -4.129  -3.835  -2.554  0.00  0.00    +0.000 C 
ATOM     11  C   LIG    1       -5.207  -2.803  -2.746  0.00  0.00    +0.000 C 
ATOM     12  C   LIG    1       -6.516  -3.177  -2.026  0.00  0.00    +0.000 C 
ATOM     13  C   LIG    1       -6.872  -4.670  -2.170  0.00  0.00    +0.000 C 
ATOM     14  C   LIG    1       -6.625  -5.188  -3.561  0.00  0.00    +0.020 C 
ATOM     15  C   LIG    1       -5.216  -5.814  -3.608  0.00  0.00    +0.010 C 
ATOM     16  C   LIG    1       -4.169  -4.813  -3.747  0.00  0.00    +0.020 C 
ENDBRANCH   9  10
ENDBRANCH   1   9
TORSDOF 5
ENDMDL
MODEL      205
REMARK  Name = ZINC000308647309
REMARK                            x       y       z     vdW  Elec       q    Type
REMARK                         _______ _______ _______ _____ _____    ______ ____
ROOT
ATOM      1  N   LIG    1       -1.605  -4.498  -2.188  0.00  0.00    -0.510 N 
ATOM      2  H   LIG    1       -1.807  -5.065  -1.378  0.00  0.00    +0.430 HD
ATOM      3  H   LIG    1       -0.716  -4.038  -2.063  0.00  0.00    +0.420 HD
ENDROOT
BRANCH   1   4
ATOM      4  C   LIG    1       -2.659  -3.489  -2.355  0.00  0.00    +0.160 C 
ATOM      5  C   LIG    1       -4.022  -4.181  -2.419  0.00  0.00    +0.090 C 
BRANCH   4   6
ATOM      6  C   LIG    1       -2.633  -2.524  -1.168  0.00  0.00    +0.050 C 
BRANCH   6   7
ATOM      7  C   LIG    1       -1.319  -1.741  -1.176  0.00  0.00    +0.010 C 
BRANCH   7   8
ATOM      8  C   LIG    1       -1.293  -0.775   0.010  0.00  0.00    +0.060 C 
BRANCH   8  10
ATOM      9  C   LIG    1       -0.016   1.306   0.009  0.00  0.00    +0.030 C 
ATOM     10  C   LIG    1        0.002  -0.004   0.002  0.00  0.00    -0.070 C 
ENDBRANCH   8  10
ENDBRANCH   7   8
ENDBRANCH   6   7
ENDBRANCH   4   6
ENDBRANCH   1   4
BRANCH   1  11
ATOM     11  C   LIG    1       -1.551  -5.352  -3.382  0.00  0.00    +0.170 C 
ATOM     12  C   LIG    1       -1.123  -4.514  -4.589  0.00  0.00    +0.090 C 
BRANCH  11  13
ATOM     13  C   LIG    1       -0.540  -6.479  -3.159  0.00  0.00    -0.030 C 
ATOM     14  C   LIG    1       -1.110  -7.670  -2.372  0.00  0.00    +0.020 C 
ATOM     15  C   LIG    1       -0.326  -8.579  -3.334  0.00  0.00    +0.030 C 
ATOM     16  C   LIG    1       -0.408  -7.434  -4.357  0.00  0.00    +0.050 C 
ENDBRANCH  11  13
ENDBRANCH   1  11
TORSDOF 7
ENDMDL
MODEL      206
REMARK  Name = ZINC000308645576
REMARK                            x       y       z     vdW  Elec       q    Type
REMARK                         _______ _______ _______ _____ _____    ______ ____
ROOT
ATOM      1  C   LIG    1       -2.715  -2.192   1.324  0.00  0.00    +0.240 C 
ENDROOT
BRANCH   1   2
ATOM      2  N   LIG    1       -1.402  -1.535   1.262  0.00  0.00    -0.510 N 
ATOM      3  H   LIG    1       -1.302  -0.908   2.046  0.00  0.00    +0.430 HD
ATOM      4  H   LIG    1       -0.675  -2.234   1.296  0.00  0.00    +0.430 HD
BRANCH   2   5
ATOM      5  C   LIG    1       -1.293  -0.775   0.010  0.00  0.00    +0.200 C 
ATOM      6  C   LIG    1       -1.319  -1.741  -1.176  0.00  0.00    +0.090 C 
BRANCH   5   8
ATOM      7  C   LIG    1       -0.016   1.306   0.009  0.00  0.00    +0.130 C 
ATOM      8  C   LIG    1        0.002  -0.004   0.002  0.00  0.00    -0.100 C 
ENDBRANCH   5   8
ENDBRANCH   2   5
ENDBRANCH   1   2
BRANCH   1   9
ATOM      9  C   LIG    1       -2.829  -2.983   2.628  0.00  0.00    +0.040 C 
BRANCH   9  10
ATOM     10  C   LIG    1       -4.196  -3.667   2.693  0.00  0.00    +0.000 C 
ATOM     11  C   LIG    1       -4.292  -4.708   1.611  0.00  0.00    +0.000 C 
ATOM     12  C   LIG    1       -5.718  -4.842   1.046  0.00  0.00    +0.000 C 
ATOM     13  C   LIG    1       -6.802  -4.795   2.141  0.00  0.00    +0.000 C 
ATOM     14  C   LIG    1       -6.420  -5.585   3.363  0.00  0.00    +0.020 C 
ATOM     15  C   LIG    1       -5.759  -4.630   4.377  0.00  0.00    +0.010 C 
ATOM     16  C   LIG    1       -4.364  -4.362   4.059  0.00  0.00    +0.020 C 
ENDBRANCH   9  10
ENDBRANCH   1   9
TORSDOF 5
ENDMDL
MODEL      207
REMARK  Name = ZINC000308644798
REMARK                            x       y       z     vdW  Elec       q    Type
REMARK                         _______ _______ _______ _____ _____    ______ ____
ROOT
ATOM      1  C   LIG    1       -3.816  -4.353  -2.333  0.00  0.00    +0.170 C 
ATOM      2  C   LIG    1       -4.081  -5.150  -3.611  0.00  0.00    +0.090 C 
ENDROOT
BRANCH   1   3
ATOM      3  N   LIG    1       -3.913  -5.245  -1.170  0.00  0.00    -0.510 N 
ATOM      4  H   LIG    1       -3.658  -4.739  -0.335  0.00  0.00    +0.430 HD
ATOM      5  H   LIG    1       -3.287  -6.027  -1.293  0.00  0.00    +0.420 HD
BRANCH   3   6
ATOM      6  C   LIG    1       -5.291  -5.737  -1.043  0.00  0.00    +0.290 C 
BRANCH   6   7
ATOM      7  C   LIG    1       -5.390  -6.652   0.150  0.00  0.00    -0.130 C 
ATOM      8  C   LIG    1       -6.301  -6.438   1.067  0.00  0.00    -0.030 C 
ATOM      9  C   LIG    1       -6.294  -7.245   2.340  0.00  0.00    +0.110 C 
ATOM     10  C   LIG    1       -7.356  -5.385   0.848  0.00  0.00    +0.100 C 
ENDBRANCH   6   7
ENDBRANCH   3   6
ENDBRANCH   1   3
BRANCH   1  11
ATOM     11  C   LIG    1       -2.414  -3.743  -2.393  0.00  0.00    +0.050 C 
BRANCH  11  12
ATOM     12  C   LIG    1       -2.195  -2.845  -1.174  0.00  0.00    -0.000 C 
BRANCH  12  13
ATOM     13  C   LIG    1       -0.793  -2.236  -1.234  0.00  0.00    +0.020 C 
BRANCH  13  14
ATOM     14  C   LIG    1       -0.575  -1.337  -0.015  0.00  0.00    +0.050 C 
BRANCH  14  16
ATOM     15  C   LIG    1        0.959   0.563  -0.015  0.00  0.00    +0.020 C 
ATOM     16  C   LIG    1        0.806  -0.737  -0.074  0.00  0.00    -0.060 C 
ENDBRANCH  14  16
ENDBRANCH  13  14
ENDBRANCH  12  13
ENDBRANCH  11  12
ENDBRANCH   1  11
TORSDOF 8
ENDMDL
MODEL      208
REMARK  Name = ZINC000308647308
REMARK                            x       y       z     vdW  Elec       q    Type
REMARK                         _______ _______ _______ _____ _____    ______ ____
ROOT
ATOM      1  N   LIG    1       -1.208  -4.555  -2.249  0.00  0.00    -0.510 N 
ATOM      2  H   LIG    1       -1.464  -5.036  -1.400  0.00  0.00    +0.420 HD
ATOM      3  H   LIG    1       -0.207  -4.428  -2.275  0.00  0.00    +0.420 HD
ENDROOT
BRANCH   1   4
ATOM      4  C   LIG    1       -1.869  -3.244  -2.287  0.00  0.00    +0.160 C 
ATOM      5  C   LIG    1       -3.377  -3.428  -2.106  0.00  0.00    +0.090 C 
BRANCH   4   6
ATOM      6  C   LIG    1       -1.324  -2.364  -1.161  0.00  0.00    +0.050 C 
BRANCH   6   7
ATOM      7  C   LIG    1        0.159  -2.077  -1.410  0.00  0.00    +0.010 C 
BRANCH   7   8
ATOM      8  C   LIG    1        0.704  -1.198  -0.283  0.00  0.00    +0.060 C 
BRANCH   8  10
ATOM      9  C   LIG    1        2.593   0.322  -0.573  0.00  0.00    +0.030 C 
ATOM     10  C   LIG    1        2.164  -0.915  -0.529  0.00  0.00    -0.070 C 
ENDBRANCH   8  10
ENDBRANCH   7   8
ENDBRANCH   6   7
ENDBRANCH   4   6
ENDBRANCH   1   4
BRANCH   1  11
ATOM     11  C   LIG    1       -1.630  -5.351  -3.409  0.00  0.00    +0.170 C 
ATOM     12  C   LIG    1       -1.051  -6.762  -3.298  0.00  0.00    +0.080 C 
BRANCH  11  13
ATOM     13  C   LIG    1       -1.122  -4.690  -4.693  0.00  0.00    -0.030 C 
ATOM     14  C   LIG    1        0.351  -5.003  -5.005  0.00  0.00    +0.030 C 
ATOM     15  C   LIG    1       -0.068  -5.122  -6.479  0.00  0.00    +0.030 C 
ATOM     16  C   LIG    1       -1.476  -5.471  -5.969  0.00  0.00    +0.040 C 
ENDBRANCH  11  13
ENDBRANCH   1  11
TORSDOF 7
ENDMDL
MODEL      209
REMARK  Name = ZINC000308647307
REMARK                            x       y       z     vdW  Elec       q    Type
REMARK                         _______ _______ _______ _____ _____    ______ ____
ROOT
ATOM      1  N   LIG    1       -2.656  -2.623  -3.505  0.00  0.00    -0.500 N 
ATOM      2  H   LIG    1       -1.755  -2.173  -3.445  0.00  0.00    +0.420 HD
ATOM      3  H   LIG    1       -3.380  -1.922  -3.548  0.00  0.00    +0.420 HD
ENDROOT
BRANCH   1   4
ATOM      4  C   LIG    1       -2.862  -3.466  -2.320  0.00  0.00    +0.160 C 
ATOM      5  C   LIG    1       -4.274  -4.056  -2.352  0.00  0.00    +0.090 C 
BRANCH   4   6
ATOM      6  C   LIG    1       -2.691  -2.621  -1.056  0.00  0.00    +0.050 C 
BRANCH   6   7
ATOM      7  C   LIG    1       -1.244  -2.134  -0.960  0.00  0.00    +0.010 C 
BRANCH   7   8
ATOM      8  C   LIG    1       -1.073  -1.288   0.303  0.00  0.00    +0.060 C 
BRANCH   8  10
ATOM      9  C   LIG    1        0.607   0.471   0.514  0.00  0.00    +0.020 C 
ATOM     10  C   LIG    1        0.353  -0.808   0.398  0.00  0.00    -0.060 C 
ENDBRANCH   8  10
ENDBRANCH   7   8
ENDBRANCH   6   7
ENDBRANCH   4   6
ENDBRANCH   1   4
BRANCH   1  11
ATOM     11  C   LIG    1       -2.709  -3.457  -4.713  0.00  0.00    +0.170 C 
ATOM     12  C   LIG    1       -2.680  -2.560  -5.953  0.00  0.00    +0.090 C 
BRANCH  11  13
ATOM     13  C   LIG    1       -1.502  -4.397  -4.737  0.00  0.00    -0.030 C 
ATOM     14  C   LIG    1       -1.694  -5.667  -3.892  0.00  0.00    +0.020 C 
ATOM     15  C   LIG    1       -0.986  -6.432  -5.023  0.00  0.00    +0.030 C 
ATOM     16  C   LIG    1       -1.462  -5.317  -5.969  0.00  0.00    +0.040 C 
ENDBRANCH  11  13
ENDBRANCH   1  11
TORSDOF 7
ENDMDL
MODEL      210
REMARK  Name = ZINC000308647310
REMARK                            x       y       z     vdW  Elec       q    Type
REMARK                         _______ _______ _______ _____ _____    ______ ____
ROOT
ATOM      1  N   LIG    1       -2.346  -2.509  -3.847  0.00  0.00    -0.510 N 
ATOM      2  H   LIG    1       -1.491  -2.041  -4.107  0.00  0.00    +0.420 HD
ATOM      3  H   LIG    1       -3.118  -1.864  -3.917  0.00  0.00    +0.420 HD
ENDROOT
BRANCH   1   4
ATOM      4  C   LIG    1       -2.237  -2.993  -2.464  0.00  0.00    +0.160 C 
ATOM      5  C   LIG    1       -3.576  -3.592  -2.026  0.00  0.00    +0.090 C 
BRANCH   4   6
ATOM      6  C   LIG    1       -1.875  -1.827  -1.542  0.00  0.00    +0.050 C 
BRANCH   6   7
ATOM      7  C   LIG    1       -0.481  -1.308  -1.900  0.00  0.00    +0.010 C 
BRANCH   7   8
ATOM      8  C   LIG    1       -0.119  -0.141  -0.979  0.00  0.00    +0.060 C 
BRANCH   8  10
ATOM      9  C   LIG    1        1.428   1.636  -1.621  0.00  0.00    +0.020 C 
ATOM     10  C   LIG    1        1.254   0.370  -1.331  0.00  0.00    -0.060 C 
ENDBRANCH   8  10
ENDBRANCH   7   8
ENDBRANCH   6   7
ENDBRANCH   4   6
ENDBRANCH   1   4
BRANCH   1  11
ATOM     11  C   LIG    1       -2.575  -3.647  -4.747  0.00  0.00    +0.170 C 
ATOM     12  C   LIG    1       -1.349  -4.563  -4.733  0.00  0.00    +0.090 C 
BRANCH  11  13
ATOM     13  C   LIG    1       -2.812  -3.133  -6.168  0.00  0.00    -0.030 C 
ATOM     14  C   LIG    1       -3.471  -4.168  -7.096  0.00  0.00    +0.050 C 
ATOM     15  C   LIG    1       -4.308  -3.010  -7.663  0.00  0.00    +0.030 C 
ATOM     16  C   LIG    1       -4.096  -2.300  -6.316  0.00  0.00    +0.010 C 
ENDBRANCH  11  13
ENDBRANCH   1  11
TORSDOF 7
ENDMDL
MODEL      211
REMARK  Name = ZINC000308644799
REMARK                            x       y       z     vdW  Elec       q    Type
REMARK                         _______ _______ _______ _____ _____    ______ ____
ROOT
ATOM      1  C   LIG    1       -4.035  -4.409  -2.234  0.00  0.00    +0.170 C 
ATOM      2  C   LIG    1       -3.940  -5.308  -3.468  0.00  0.00    +0.090 C 
ENDROOT
BRANCH   1   3
ATOM      3  N   LIG    1       -5.119  -3.435  -2.421  0.00  0.00    -0.510 N 
ATOM      4  H   LIG    1       -4.970  -2.926  -3.279  0.00  0.00    +0.430 HD
ATOM      5  H   LIG    1       -5.129  -2.790  -1.645  0.00  0.00    +0.420 HD
BRANCH   3   6
ATOM      6  C   LIG    1       -6.406  -4.141  -2.488  0.00  0.00    +0.300 C 
BRANCH   6   7
ATOM      7  C   LIG    1       -7.517  -3.142  -2.680  0.00  0.00    -0.140 C 
ATOM      8  C   LIG    1       -8.504  -3.086  -1.820  0.00  0.00    -0.030 C 
ATOM      9  C   LIG    1       -9.701  -2.215  -2.101  0.00  0.00    +0.110 C 
ATOM     10  C   LIG    1       -8.442  -3.894  -0.549  0.00  0.00    +0.100 C 
ENDBRANCH   6   7
ENDBRANCH   3   6
ENDBRANCH   1   3
BRANCH   1  11
ATOM     11  C   LIG    1       -2.711  -3.667  -2.039  0.00  0.00    +0.050 C 
BRANCH  11  12
ATOM     12  C   LIG    1       -2.763  -2.865  -0.738  0.00  0.00    -0.000 C 
BRANCH  12  13
ATOM     13  C   LIG    1       -1.439  -2.123  -0.543  0.00  0.00    +0.020 C 
BRANCH  13  14
ATOM     14  C   LIG    1       -1.490  -1.321   0.758  0.00  0.00    +0.050 C 
BRANCH  14  16
ATOM     15  C   LIG    1       -0.182   0.707   1.128  0.00  0.00    +0.020 C 
ATOM     16  C   LIG    1       -0.186  -0.591   0.950  0.00  0.00    -0.060 C 
ENDBRANCH  14  16
ENDBRANCH  13  14
ENDBRANCH  12  13
ENDBRANCH  11  12
ENDBRANCH   1  11
TORSDOF 8
ENDMDL
MODEL      212
REMARK  Name = ZINC000308652936
REMARK                            x       y       z     vdW  Elec       q    Type
REMARK                         _______ _______ _______ _____ _____    ______ ____
ROOT
ATOM      1  N   LIG    1       -2.658  -3.451  -2.307  0.00  0.00    -0.510 N 
ATOM      2  H   LIG    1       -1.884  -4.093  -2.235  0.00  0.00    +0.430 HD
ATOM      3  H   LIG    1       -2.583  -2.929  -3.167  0.00  0.00    +0.430 HD
ENDROOT
BRANCH   1   4
ATOM      4  C   LIG    1       -3.920  -4.202  -2.299  0.00  0.00    +0.160 C 
ATOM      5  C   LIG    1       -5.088  -3.242  -2.534  0.00  0.00    +0.090 C 
BRANCH   4   6
ATOM      6  C   LIG    1       -3.894  -5.254  -3.410  0.00  0.00    +0.060 C 
BRANCH   6   7
ATOM      7  C   LIG    1       -2.806  -6.287  -3.110  0.00  0.00    -0.040 C 
ATOM      8  C   LIG    1       -3.211  -7.165  -1.900  0.00  0.00    +0.010 C 
ATOM      9  C   LIG    1       -2.379  -8.452  -2.118  0.00  0.00    +0.010 C 
ATOM     10  C   LIG    1       -2.403  -8.665  -3.646  0.00  0.00    +0.010 C 
ATOM     11  C   LIG    1       -2.675  -7.288  -4.276  0.00  0.00    +0.020 C 
ENDBRANCH   6   7
ENDBRANCH   4   6
ENDBRANCH   1   4
BRANCH   1  12
ATOM     12  C   LIG    1       -2.633  -2.524  -1.168  0.00  0.00    +0.250 C 
BRANCH  12  13
ATOM     13  C   LIG    1       -1.319  -1.741  -1.176  0.00  0.00    +0.040 C 
BRANCH  13  14
ATOM     14  C   LIG    1       -1.293  -0.775   0.010  0.00  0.00    +0.070 C 
BRANCH  14  16
ATOM     15  C   LIG    1       -0.016   1.306   0.009  0.00  0.00    +0.030 C 
ATOM     16  C   LIG    1        0.002  -0.004   0.002  0.00  0.00    -0.070 C 
ENDBRANCH  14  16
ENDBRANCH  13  14
ENDBRANCH  12  13
ENDBRANCH   1  12
TORSDOF 7
ENDMDL
MODEL      213
REMARK  Name = ZINC000308652935
REMARK                            x       y       z     vdW  Elec       q    Type
REMARK                         _______ _______ _______ _____ _____    ______ ____
ROOT
ATOM      1  N   LIG    1       -2.647  -3.440  -2.333  0.00  0.00    -0.510 N 
ATOM      2  H   LIG    1       -1.919  -4.130  -2.221  0.00  0.00    +0.430 HD
ATOM      3  H   LIG    1       -2.507  -2.941  -3.199  0.00  0.00    +0.430 HD
ENDROOT
BRANCH   1   4
ATOM      4  C   LIG    1       -3.955  -4.108  -2.357  0.00  0.00    +0.160 C 
ATOM      5  C   LIG    1       -4.104  -4.984  -1.112  0.00  0.00    +0.080 C 
BRANCH   4   6
ATOM      6  C   LIG    1       -4.059  -4.980  -3.610  0.00  0.00    +0.040 C 
BRANCH   6   7
ATOM      7  C   LIG    1       -5.471  -5.559  -3.712  0.00  0.00    +0.000 C 
ATOM      8  C   LIG    1       -6.489  -4.447  -4.068  0.00  0.00    +0.010 C 
ATOM      9  C   LIG    1       -7.653  -5.242  -4.709  0.00  0.00    +0.010 C 
ATOM     10  C   LIG    1       -6.952  -6.348  -5.525  0.00  0.00    +0.010 C 
ATOM     11  C   LIG    1       -5.565  -6.550  -4.891  0.00  0.00    +0.020 C 
ENDBRANCH   6   7
ENDBRANCH   4   6
ENDBRANCH   1   4
BRANCH   1  12
ATOM     12  C   LIG    1       -2.600  -2.494  -1.210  0.00  0.00    +0.250 C 
BRANCH  12  13
ATOM     13  C   LIG    1       -1.238  -1.799  -1.184  0.00  0.00    +0.040 C 
BRANCH  13  14
ATOM     14  C   LIG    1       -1.190  -0.814  -0.015  0.00  0.00    +0.070 C 
BRANCH  14  16
ATOM     15  C   LIG    1        0.221   1.179  -0.006  0.00  0.00    +0.030 C 
ATOM     16  C   LIG    1        0.152  -0.129   0.011  0.00  0.00    -0.070 C 
ENDBRANCH  14  16
ENDBRANCH  13  14
ENDBRANCH  12  13
ENDBRANCH   1  12
TORSDOF 7
ENDMDL
MODEL      214
REMARK  Name = ZINC000308655942
REMARK                            x       y       z     vdW  Elec       q    Type
REMARK                         _______ _______ _______ _____ _____    ______ ____
ROOT
ATOM      1  C   LIG    1       -3.974  -4.272  -2.346  0.00  0.00    +0.170 C 
ATOM      2  C   LIG    1       -3.948  -5.324  -3.457  0.00  0.00    +0.090 C 
ENDROOT
BRANCH   1   3
ATOM      3  N   LIG    1       -5.095  -3.350  -2.571  0.00  0.00    -0.500 N 
ATOM      4  H   LIG    1       -5.025  -2.955  -3.497  0.00  0.00    +0.420 HD
ATOM      5  H   LIG    1       -5.063  -2.609  -1.887  0.00  0.00    +0.420 HD
BRANCH   3   6
ATOM      6  C   LIG    1       -6.363  -4.080  -2.444  0.00  0.00    +0.150 C 
ATOM      7  C   LIG    1       -6.896  -4.142  -1.004  0.00  0.00    +0.050 C 
ATOM      8  C   LIG    1       -8.297  -3.917  -1.596  0.00  0.00    +0.010 C 
ATOM      9  C   LIG    1       -9.169  -2.971  -0.767  0.00  0.00    +0.050 C 
ATOM     10  C   LIG    1       -7.599  -3.230  -2.782  0.00  0.00    +0.050 C 
ENDBRANCH   3   6
ENDBRANCH   1   3
BRANCH   1  11
ATOM     11  C   LIG    1       -2.659  -3.489  -2.355  0.00  0.00    +0.050 C 
BRANCH  11  12
ATOM     12  C   LIG    1       -2.633  -2.524  -1.168  0.00  0.00    +0.010 C 
BRANCH  12  13
ATOM     13  C   LIG    1       -1.319  -1.741  -1.176  0.00  0.00    +0.020 C 
BRANCH  13  14
ATOM     14  C   LIG    1       -1.293  -0.775   0.010  0.00  0.00    +0.050 C 
BRANCH  14  16
ATOM     15  C   LIG    1       -0.016   1.306   0.009  0.00  0.00    +0.020 C 
ATOM     16  C   LIG    1        0.002  -0.004   0.002  0.00  0.00    -0.060 C 
ENDBRANCH  14  16
ENDBRANCH  13  14
ENDBRANCH  12  13
ENDBRANCH  11  12
ENDBRANCH   1  11
TORSDOF 7
ENDMDL
MODEL      215
REMARK  Name = ZINC000308655943
REMARK                            x       y       z     vdW  Elec       q    Type
REMARK                         _______ _______ _______ _____ _____    ______ ____
ROOT
ATOM      1  C   LIG    1       -3.974  -4.272  -2.346  0.00  0.00    +0.170 C 
ATOM      2  C   LIG    1       -4.055  -5.146  -3.600  0.00  0.00    +0.080 C 
ENDROOT
BRANCH   1   3
ATOM      3  N   LIG    1       -4.029  -5.124  -1.151  0.00  0.00    -0.500 N 
ATOM      4  H   LIG    1       -3.893  -4.557  -0.327  0.00  0.00    +0.430 HD
ATOM      5  H   LIG    1       -3.302  -5.822  -1.202  0.00  0.00    +0.420 HD
BRANCH   3   6
ATOM      6  C   LIG    1       -5.339  -5.785  -1.080  0.00  0.00    +0.150 C 
ATOM      7  C   LIG    1       -5.401  -7.114  -1.849  0.00  0.00    +0.050 C 
ATOM      8  C   LIG    1       -6.234  -7.662  -0.679  0.00  0.00    +0.010 C 
ATOM      9  C   LIG    1       -5.885  -9.102  -0.299  0.00  0.00    +0.050 C 
ATOM     10  C   LIG    1       -5.545  -6.607   0.203  0.00  0.00    +0.050 C 
ENDBRANCH   3   6
ENDBRANCH   1   3
BRANCH   1  11
ATOM     11  C   LIG    1       -2.659  -3.489  -2.355  0.00  0.00    +0.050 C 
BRANCH  11  12
ATOM     12  C   LIG    1       -2.633  -2.524  -1.168  0.00  0.00    -0.000 C 
BRANCH  12  13
ATOM     13  C   LIG    1       -1.319  -1.741  -1.176  0.00  0.00    +0.020 C 
BRANCH  13  14
ATOM     14  C   LIG    1       -1.293  -0.775   0.010  0.00  0.00    +0.050 C 
BRANCH  14  16
ATOM     15  C   LIG    1       -0.016   1.306   0.009  0.00  0.00    +0.020 C 
ATOM     16  C   LIG    1        0.002  -0.004   0.002  0.00  0.00    -0.060 C 
ENDBRANCH  14  16
ENDBRANCH  13  14
ENDBRANCH  12  13
ENDBRANCH  11  12
ENDBRANCH   1  11
TORSDOF 7
ENDMDL
MODEL      216
REMARK  Name = ZINC000308669329
REMARK                            x       y       z     vdW  Elec       q    Type
REMARK                         _______ _______ _______ _____ _____    ______ ____
ROOT
ATOM      1  N   LIG    1        1.739  -2.367   3.133  0.00  0.00    -0.500 N 
ATOM      2  H   LIG    1        0.971  -1.821   2.771  0.00  0.00    +0.420 HD
ATOM      3  H   LIG    1        2.498  -1.752   3.385  0.00  0.00    +0.420 HD
ENDROOT
BRANCH   1   4
ATOM      4  C   LIG    1        2.194  -3.312   2.104  0.00  0.00    +0.160 C 
ATOM      5  C   LIG    1        2.922  -2.548   0.997  0.00  0.00    +0.090 C 
BRANCH   4   6
ATOM      6  C   LIG    1        0.988  -4.042   1.512  0.00  0.00    +0.100 C 
BRANCH   6   8
ATOM      7  C   LIG    1       -0.866  -4.906   2.847  0.00  0.00    +0.050 C 
ATOM      8  C   LIG    1        0.407  -4.973   2.545  0.00  0.00    -0.060 C 
ENDBRANCH   6   8
ENDBRANCH   4   6
ENDBRANCH   1   4
BRANCH   1   9
ATOM      9  C   LIG    1        1.295  -3.111   4.319  0.00  0.00    +0.150 C 
ATOM     10  C   LIG    1        2.477  -3.881   4.910  0.00  0.00    +0.080 C 
BRANCH   9  11
ATOM     11  C   LIG    1        0.752  -2.131   5.362  0.00  0.00    +0.060 C 
BRANCH  11  12
ATOM     12  C   LIG    1       -0.505  -1.451   4.816  0.00  0.00    +0.050 C 
BRANCH  12  13
ATOM     13  C   LIG    1       -1.040  -0.486   5.843  0.00  0.00    -0.090 C 
ATOM     14  C   LIG    1       -2.288  -0.570   6.234  0.00  0.00    -0.100 C 
ATOM     15  C   LIG    1       -2.812   0.370   7.289  0.00  0.00    +0.070 C 
ATOM     16  C   LIG    1       -3.199  -1.607   5.629  0.00  0.00    +0.080 C 
ENDBRANCH  12  13
ENDBRANCH  11  12
ENDBRANCH   9  11
ENDBRANCH   1   9
TORSDOF 7
ENDMDL
MODEL      217
REMARK  Name = ZINC000308669338
REMARK                            x       y       z     vdW  Elec       q    Type
REMARK                         _______ _______ _______ _____ _____    ______ ____
ROOT
ATOM      1  N   LIG    1        0.011  -2.469   0.265  0.00  0.00    -0.500 N 
ATOM      2  H   LIG    1        0.353  -3.124  -0.421  0.00  0.00    +0.420 HD
ATOM      3  H   LIG    1       -0.938  -2.209   0.039  0.00  0.00    +0.420 HD
ENDROOT
BRANCH   1   4
ATOM      4  C   LIG    1        0.860  -1.270   0.265  0.00  0.00    +0.160 C 
ATOM      5  C   LIG    1        0.988  -0.736  -1.163  0.00  0.00    +0.090 C 
BRANCH   4   6
ATOM      6  C   LIG    1        0.231  -0.198   1.157  0.00  0.00    +0.090 C 
BRANCH   6   8
ATOM      7  C   LIG    1        1.413   0.511   3.172  0.00  0.00    +0.080 C 
ATOM      8  C   LIG    1        0.681  -0.401   2.580  0.00  0.00    -0.100 C 
ENDBRANCH   6   8
ENDBRANCH   4   6
ENDBRANCH   1   4
BRANCH   1   9
ATOM      9  C   LIG    1        0.043  -3.092   1.595  0.00  0.00    +0.160 C 
ATOM     10  C   LIG    1        1.482  -3.481   1.941  0.00  0.00    +0.090 C 
BRANCH   9  11
ATOM     11  C   LIG    1       -0.838  -4.343   1.594  0.00  0.00    +0.060 C 
BRANCH  11  12
ATOM     12  C   LIG    1       -2.297  -3.939   1.372  0.00  0.00    +0.040 C 
BRANCH  12  13
ATOM     13  C   LIG    1       -3.164  -5.171   1.371  0.00  0.00    -0.090 C 
ATOM     14  C   LIG    1       -4.048  -5.351   2.321  0.00  0.00    -0.100 C 
ATOM     15  C   LIG    1       -4.880  -6.607   2.349  0.00  0.00    +0.070 C 
ATOM     16  C   LIG    1       -4.234  -4.301   3.386  0.00  0.00    +0.080 C 
ENDBRANCH  12  13
ENDBRANCH  11  12
ENDBRANCH   9  11
ENDBRANCH   1   9
TORSDOF 7
ENDMDL
MODEL      218
REMARK  Name = ZINC000308669583
REMARK                            x       y       z     vdW  Elec       q    Type
REMARK                         _______ _______ _______ _____ _____    ______ ____
ROOT
ATOM      1  N   LIG    1       -0.068  -2.967   2.346  0.00  0.00    -0.510 N 
ATOM      2  H   LIG    1        0.358  -3.327   1.505  0.00  0.00    +0.420 HD
ATOM      3  H   LIG    1       -0.941  -2.517   2.114  0.00  0.00    +0.420 HD
ENDROOT
BRANCH   1   4
ATOM      4  C   LIG    1        0.834  -1.992   2.974  0.00  0.00    +0.170 C 
ATOM      5  C   LIG    1        2.199  -2.641   3.212  0.00  0.00    +0.090 C 
BRANCH   4   6
ATOM      6  C   LIG    1        0.997  -0.782   2.053  0.00  0.00    +0.090 C 
BRANCH   6   8
ATOM      7  C   LIG    1       -0.414   1.205   2.197  0.00  0.00    +0.090 C 
ATOM      8  C   LIG    1       -0.325  -0.072   1.917  0.00  0.00    -0.110 C 
ENDBRANCH   6   8
ENDBRANCH   4   6
ENDBRANCH   1   4
BRANCH   1   9
ATOM      9  C   LIG    1       -0.321  -4.073   3.279  0.00  0.00    +0.160 C 
ATOM     10  C   LIG    1       -1.079  -3.548   4.500  0.00  0.00    +0.090 C 
BRANCH   9  11
ATOM     11  C   LIG    1       -1.157  -5.148   2.582  0.00  0.00    +0.060 C 
BRANCH  11  12
ATOM     12  C   LIG    1       -0.349  -5.761   1.437  0.00  0.00    +0.050 C 
BRANCH  12  13
ATOM     13  C   LIG    1       -1.173  -6.819   0.751  0.00  0.00    -0.090 C 
ATOM     14  C   LIG    1       -0.693  -8.029   0.601  0.00  0.00    -0.100 C 
ATOM     15  C   LIG    1       -1.566  -9.123   0.042  0.00  0.00    +0.070 C 
ATOM     16  C   LIG    1        0.733  -8.326   0.986  0.00  0.00    +0.080 C 
ENDBRANCH  12  13
ENDBRANCH  11  12
ENDBRANCH   9  11
ENDBRANCH   1   9
TORSDOF 7
ENDMDL
MODEL      219
REMARK  Name = ZINC000308669322
REMARK                            x       y       z     vdW  Elec       q    Type
REMARK                         _______ _______ _______ _____ _____    ______ ____
ROOT
ATOM      1  N   LIG    1        2.327   0.101   1.952  0.00  0.00    -0.510 N 
ATOM      2  H   LIG    1        1.483   0.654   1.958  0.00  0.00    +0.420 HD
ATOM      3  H   LIG    1        3.091   0.650   2.315  0.00  0.00    +0.420 HD
ENDROOT
BRANCH   1   4
ATOM      4  C   LIG    1        2.632  -0.313   0.576  0.00  0.00    +0.170 C 
ATOM      5  C   LIG    1        3.975  -1.045   0.550  0.00  0.00    +0.090 C 
BRANCH   4   6
ATOM      6  C   LIG    1        2.705   0.922  -0.324  0.00  0.00    +0.100 C 
BRANCH   6   8
ATOM      7  C   LIG    1        1.212   2.838  -0.084  0.00  0.00    +0.060 C 
ATOM      8  C   LIG    1        1.349   1.573  -0.395  0.00  0.00    -0.090 C 
ENDBRANCH   6   8
ENDBRANCH   4   6
ENDBRANCH   1   4
BRANCH   1   9
ATOM      9  C   LIG    1        2.138  -1.090   2.791  0.00  0.00    +0.160 C 
ATOM     10  C   LIG    1        0.902  -1.857   2.317  0.00  0.00    +0.090 C 
BRANCH   9  11
ATOM     11  C   LIG    1        1.944  -0.662   4.247  0.00  0.00    +0.060 C 
BRANCH  11  12
ATOM     12  C   LIG    1        3.226  -0.004   4.761  0.00  0.00    +0.050 C 
BRANCH  12  13
ATOM     13  C   LIG    1        3.035   0.417   6.195  0.00  0.00    -0.090 C 
ATOM     14  C   LIG    1        3.829  -0.050   7.127  0.00  0.00    -0.100 C 
ATOM     15  C   LIG    1        3.724   0.470   8.537  0.00  0.00    +0.070 C 
ATOM     16  C   LIG    1        4.847  -1.109   6.787  0.00  0.00    +0.080 C 
ENDBRANCH  12  13
ENDBRANCH  11  12
ENDBRANCH   9  11
ENDBRANCH   1   9
TORSDOF 7
ENDMDL
MODEL      220
REMARK  Name = ZINC001172360467
REMARK                            x       y       z     vdW  Elec       q    Type
REMARK                         _______ _______ _______ _____ _____    ______ ____
ROOT
ATOM      1  C   LIG    1        2.078  -6.176  -3.841  0.00  0.00    +0.170 C 
ENDROOT
BRANCH   1   2
ATOM      2  N   LIG    1        3.026  -6.452  -2.753  0.00  0.00    -0.480 N 
ATOM      3  H   LIG    1        2.631  -6.144  -1.877  0.00  0.00    +0.430 HD
ATOM      4  H   LIG    1        3.888  -5.958  -2.925  0.00  0.00    +0.420 HD
BRANCH   2   5
ATOM      5  C   LIG    1        3.292  -7.895  -2.690  0.00  0.00    +0.100 C 
ATOM      6  C   LIG    1        4.725  -8.361  -2.956  0.00  0.00    +0.100 C 
ATOM      7  C   LIG    1        4.158  -8.404  -1.535  0.00  0.00    +0.100 C 
ENDBRANCH   2   5
ENDBRANCH   1   2
BRANCH   1   8
ATOM      8  C   LIG    1        2.732  -6.510  -5.183  0.00  0.00    +0.040 C 
ATOM      9  C   LIG    1        1.711  -6.324  -6.308  0.00  0.00    +0.060 C 
ENDBRANCH   1   8
BRANCH   1  10
ATOM     10  C   LIG    1        1.690  -4.696  -3.816  0.00  0.00    +0.060 C 
BRANCH  10  11
ATOM     11  C   LIG    1        0.926  -4.391  -2.526  0.00  0.00    +0.010 C 
BRANCH  11  12
ATOM     12  C   LIG    1        0.537  -2.911  -2.502  0.00  0.00    +0.020 C 
BRANCH  12  13
ATOM     13  C   LIG    1       -0.227  -2.606  -1.212  0.00  0.00    +0.000 C 
BRANCH  13  14
ATOM     14  C   LIG    1       -0.615  -1.126  -1.187  0.00  0.00    +0.000 C 
BRANCH  14  16
ATOM     15  C   LIG    1       -1.767   0.659   0.127  0.00  0.00    +0.010 C 
ATOM     16  C   LIG    1       -1.379  -0.820   0.102  0.00  0.00    -0.010 C 
ENDBRANCH  14  16
ENDBRANCH  13  14
ENDBRANCH  12  13
ENDBRANCH  11  12
ENDBRANCH  10  11
ENDBRANCH   1  10
TORSDOF 9
ENDMDL
MODEL      221
REMARK  Name = ZINC000308677019
REMARK                            x       y       z     vdW  Elec       q    Type
REMARK                         _______ _______ _______ _____ _____    ______ ____
ROOT
ATOM      1  C   LIG    1       -3.974  -4.272  -2.346  0.00  0.00    +0.160 C 
ATOM      2  C   LIG    1       -3.948  -5.324  -3.457  0.00  0.00    +0.090 C 
ENDROOT
BRANCH   1   3
ATOM      3  N   LIG    1       -5.095  -3.350  -2.571  0.00  0.00    -0.500 N 
ATOM      4  H   LIG    1       -5.025  -2.955  -3.497  0.00  0.00    +0.430 HD
ATOM      5  H   LIG    1       -5.063  -2.609  -1.887  0.00  0.00    +0.420 HD
BRANCH   3   6
ATOM      6  C   LIG    1       -6.363  -4.080  -2.444  0.00  0.00    +0.160 C 
ATOM      7  C   LIG    1       -6.615  -4.476  -0.968  0.00  0.00    +0.040 C 
ATOM      8  C   LIG    1       -8.153  -4.649  -0.919  0.00  0.00    +0.050 C 
ATOM      9  C   LIG    1       -8.690  -3.525  -1.829  0.00  0.00    +0.030 C 
ATOM     10  C   LIG    1       -7.552  -3.163  -2.799  0.00  0.00    +0.040 C 
ENDBRANCH   3   6
ENDBRANCH   1   3
BRANCH   1  11
ATOM     11  C   LIG    1       -2.659  -3.489  -2.355  0.00  0.00    +0.050 C 
BRANCH  11  12
ATOM     12  C   LIG    1       -2.633  -2.524  -1.168  0.00  0.00    -0.000 C 
BRANCH  12  13
ATOM     13  C   LIG    1       -1.319  -1.741  -1.176  0.00  0.00    +0.020 C 
BRANCH  13  14
ATOM     14  C   LIG    1       -1.293  -0.775   0.010  0.00  0.00    +0.050 C 
BRANCH  14  16
ATOM     15  C   LIG    1       -0.016   1.306   0.009  0.00  0.00    +0.020 C 
ATOM     16  C   LIG    1        0.002  -0.004   0.002  0.00  0.00    -0.060 C 
ENDBRANCH  14  16
ENDBRANCH  13  14
ENDBRANCH  12  13
ENDBRANCH  11  12
ENDBRANCH   1  11
TORSDOF 7
ENDMDL
MODEL      222
REMARK  Name = ZINC000308674696
REMARK                            x       y       z     vdW  Elec       q    Type
REMARK                         _______ _______ _______ _____ _____    ______ ____
ROOT
ATOM      1  C   LIG    1        4.127  -4.146   2.187  0.00  0.00    +0.160 C 
ATOM      2  C   LIG    1        3.990  -5.328   3.149  0.00  0.00    +0.090 C 
ENDROOT
BRANCH   1   3
ATOM      3  N   LIG    1        5.257  -3.304   2.602  0.00  0.00    -0.510 N 
ATOM      4  H   LIG    1        5.136  -3.030   3.566  0.00  0.00    +0.430 HD
ATOM      5  H   LIG    1        5.295  -2.481   2.020  0.00  0.00    +0.420 HD
BRANCH   3   6
ATOM      6  C   LIG    1        6.508  -4.061   2.462  0.00  0.00    +0.160 C 
ATOM      7  C   LIG    1        7.665  -3.246   3.043  0.00  0.00    +0.090 C 
BRANCH   6   8
ATOM      8  C   LIG    1        6.773  -4.338   0.981  0.00  0.00    -0.020 C 
ATOM      9  C   LIG    1        8.008  -5.231   0.842  0.00  0.00    +0.070 C 
ATOM     10  C   LIG    1        7.016  -3.016   0.250  0.00  0.00    +0.040 C 
ENDBRANCH   6   8
ENDBRANCH   3   6
ENDBRANCH   1   3
BRANCH   1  11
ATOM     11  C   LIG    1        2.840  -3.319   2.209  0.00  0.00    +0.050 C 
BRANCH  11  12
ATOM     12  C   LIG    1        2.927  -2.211   1.158  0.00  0.00    -0.000 C 
BRANCH  12  13
ATOM     13  C   LIG    1        1.640  -1.384   1.180  0.00  0.00    +0.020 C 
BRANCH  13  14
ATOM     14  C   LIG    1        1.728  -0.276   0.129  0.00  0.00    +0.050 C 
BRANCH  14  16
ATOM     15  C   LIG    1        0.518   1.837   0.314  0.00  0.00    +0.020 C 
ATOM     16  C   LIG    1        0.460   0.539   0.151  0.00  0.00    -0.060 C 
ENDBRANCH  14  16
ENDBRANCH  13  14
ENDBRANCH  12  13
ENDBRANCH  11  12
ENDBRANCH   1  11
TORSDOF 8
ENDMDL
MODEL      223
REMARK  Name = ZINC000308674690
REMARK                            x       y       z     vdW  Elec       q    Type
REMARK                         _______ _______ _______ _____ _____    ______ ____
ROOT
ATOM      1  C   LIG    1        4.093  -4.188   2.304  0.00  0.00    +0.160 C 
ATOM      2  C   LIG    1        4.197  -5.073   3.547  0.00  0.00    +0.090 C 
ENDROOT
BRANCH   1   3
ATOM      3  N   LIG    1        4.170  -5.025   1.099  0.00  0.00    -0.510 N 
ATOM      4  H   LIG    1        4.019  -4.453   0.282  0.00  0.00    +0.420 HD
ATOM      5  H   LIG    1        3.463  -5.744   1.142  0.00  0.00    +0.420 HD
BRANCH   3   6
ATOM      6  C   LIG    1        5.498  -5.649   1.021  0.00  0.00    +0.160 C 
ATOM      7  C   LIG    1        6.561  -4.565   0.830  0.00  0.00    +0.080 C 
BRANCH   6   8
ATOM      8  C   LIG    1        5.538  -6.617  -0.163  0.00  0.00    -0.020 C 
ATOM      9  C   LIG    1        6.876  -7.358  -0.171  0.00  0.00    +0.070 C 
ATOM     10  C   LIG    1        5.382  -5.833  -1.468  0.00  0.00    +0.040 C 
ENDBRANCH   6   8
ENDBRANCH   3   6
ENDBRANCH   1   3
BRANCH   1  11
ATOM     11  C   LIG    1        2.757  -3.441   2.321  0.00  0.00    +0.050 C 
BRANCH  11  12
ATOM     12  C   LIG    1        2.705  -2.464   1.145  0.00  0.00    -0.000 C 
BRANCH  12  13
ATOM     13  C   LIG    1        1.370  -1.717   1.161  0.00  0.00    +0.020 C 
BRANCH  13  14
ATOM     14  C   LIG    1        1.317  -0.740  -0.015  0.00  0.00    +0.050 C 
BRANCH  14  16
ATOM     15  C   LIG    1       -0.016   1.306   0.009  0.00  0.00    +0.020 C 
ATOM     16  C   LIG    1        0.002  -0.004   0.002  0.00  0.00    -0.060 C 
ENDBRANCH  14  16
ENDBRANCH  13  14
ENDBRANCH  12  13
ENDBRANCH  11  12
ENDBRANCH   1  11
TORSDOF 8
ENDMDL
MODEL      224
REMARK  Name = ZINC000308674699
REMARK                            x       y       z     vdW  Elec       q    Type
REMARK                         _______ _______ _______ _____ _____    ______ ____
ROOT
ATOM      1  C   LIG    1        4.093  -4.188   2.304  0.00  0.00    +0.160 C 
ATOM      2  C   LIG    1        4.096  -5.252   3.403  0.00  0.00    +0.090 C 
ENDROOT
BRANCH   1   3
ATOM      3  N   LIG    1        5.188  -3.238   2.539  0.00  0.00    -0.510 N 
ATOM      4  H   LIG    1        5.108  -2.856   3.469  0.00  0.00    +0.420 HD
ATOM      5  H   LIG    1        5.136  -2.491   1.863  0.00  0.00    +0.420 HD
BRANCH   3   6
ATOM      6  C   LIG    1        6.476  -3.933   2.404  0.00  0.00    +0.160 C 
ATOM      7  C   LIG    1        6.652  -4.404   0.960  0.00  0.00    +0.080 C 
BRANCH   6   8
ATOM      8  C   LIG    1        7.612  -2.975   2.771  0.00  0.00    -0.020 C 
ATOM      9  C   LIG    1        8.953  -3.699   2.631  0.00  0.00    +0.070 C 
ATOM     10  C   LIG    1        7.435  -2.504   4.216  0.00  0.00    +0.040 C 
ENDBRANCH   6   8
ENDBRANCH   3   6
ENDBRANCH   1   3
BRANCH   1  11
ATOM     11  C   LIG    1        2.757  -3.441   2.321  0.00  0.00    +0.050 C 
BRANCH  11  12
ATOM     12  C   LIG    1        2.705  -2.464   1.145  0.00  0.00    -0.000 C 
BRANCH  12  13
ATOM     13  C   LIG    1        1.370  -1.717   1.161  0.00  0.00    +0.020 C 
BRANCH  13  14
ATOM     14  C   LIG    1        1.317  -0.740  -0.015  0.00  0.00    +0.050 C 
BRANCH  14  16
ATOM     15  C   LIG    1       -0.016   1.306   0.009  0.00  0.00    +0.020 C 
ATOM     16  C   LIG    1        0.002  -0.004   0.002  0.00  0.00    -0.060 C 
ENDBRANCH  14  16
ENDBRANCH  13  14
ENDBRANCH  12  13
ENDBRANCH  11  12
ENDBRANCH   1  11
TORSDOF 8
ENDMDL
MODEL      225
REMARK  Name = ZINC000308677018
REMARK                            x       y       z     vdW  Elec       q    Type
REMARK                         _______ _______ _______ _____ _____    ______ ____
ROOT
ATOM      1  C   LIG    1       -3.983  -4.222  -2.372  0.00  0.00    +0.170 C 
ATOM      2  C   LIG    1       -3.768  -5.013  -3.664  0.00  0.00    +0.080 C 
ENDROOT
BRANCH   1   3
ATOM      3  N   LIG    1       -3.335  -4.924  -1.255  0.00  0.00    -0.510 N 
ATOM      4  H   LIG    1       -3.367  -4.344  -0.430  0.00  0.00    +0.420 HD
ATOM      5  H   LIG    1       -2.374  -5.119  -1.492  0.00  0.00    +0.420 HD
BRANCH   3   6
ATOM      6  C   LIG    1       -4.041  -6.185  -0.994  0.00  0.00    +0.160 C 
ATOM      7  C   LIG    1       -3.682  -7.240  -2.070  0.00  0.00    +0.040 C 
ATOM      8  C   LIG    1       -3.975  -8.579  -1.348  0.00  0.00    +0.040 C 
ATOM      9  C   LIG    1       -3.512  -8.335   0.103  0.00  0.00    +0.030 C 
ATOM     10  C   LIG    1       -3.555  -6.813   0.328  0.00  0.00    +0.040 C 
ENDBRANCH   3   6
ENDBRANCH   1   3
BRANCH   1  11
ATOM     11  C   LIG    1       -3.372  -2.827  -2.520  0.00  0.00    +0.050 C 
BRANCH  11  12
ATOM     12  C   LIG    1       -3.694  -1.994  -1.278  0.00  0.00    -0.000 C 
BRANCH  12  13
ATOM     13  C   LIG    1       -3.083  -0.600  -1.427  0.00  0.00    +0.020 C 
BRANCH  13  14
ATOM     14  C   LIG    1       -3.405   0.233  -0.185  0.00  0.00    +0.050 C 
BRANCH  14  16
ATOM     15  C   LIG    1       -3.561   2.670  -0.215  0.00  0.00    +0.020 C 
ATOM     16  C   LIG    1       -2.803   1.607  -0.331  0.00  0.00    -0.060 C 
ENDBRANCH  14  16
ENDBRANCH  13  14
ENDBRANCH  12  13
ENDBRANCH  11  12
ENDBRANCH   1  11
TORSDOF 7
ENDMDL
MODEL      226
REMARK  Name = ZINC000308674693
REMARK                            x       y       z     vdW  Elec       q    Type
REMARK                         _______ _______ _______ _____ _____    ______ ____
ROOT
ATOM      1  C   LIG    1        4.117  -4.278   2.232  0.00  0.00    +0.160 C 
ATOM      2  C   LIG    1        4.890  -5.095   3.269  0.00  0.00    +0.090 C 
ENDROOT
BRANCH   1   3
ATOM      3  N   LIG    1        4.047  -5.028   0.971  0.00  0.00    -0.510 N 
ATOM      4  H   LIG    1        3.219  -5.604   0.968  0.00  0.00    +0.420 HD
ATOM      5  H   LIG    1        4.864  -5.613   0.882  0.00  0.00    +0.420 HD
BRANCH   3   6
ATOM      6  C   LIG    1        3.994  -4.087  -0.156  0.00  0.00    +0.160 C 
ATOM      7  C   LIG    1        5.320  -3.331  -0.253  0.00  0.00    +0.090 C 
BRANCH   6   8
ATOM      8  C   LIG    1        3.750  -4.859  -1.454  0.00  0.00    -0.020 C 
ATOM      9  C   LIG    1        3.694  -3.879  -2.628  0.00  0.00    +0.070 C 
ATOM     10  C   LIG    1        2.424  -5.615  -1.357  0.00  0.00    +0.040 C 
ENDBRANCH   6   8
ENDBRANCH   3   6
ENDBRANCH   1   3
BRANCH   1  11
ATOM     11  C   LIG    1        2.701  -4.011   2.746  0.00  0.00    +0.050 C 
BRANCH  11  12
ATOM     12  C   LIG    1        1.956  -3.121   1.749  0.00  0.00    +0.010 C 
BRANCH  12  13
ATOM     13  C   LIG    1        0.587  -2.749   2.321  0.00  0.00    +0.020 C 
BRANCH  13  14
ATOM     14  C   LIG    1       -0.158  -1.859   1.324  0.00  0.00    +0.050 C 
BRANCH  14  16
ATOM     15  C   LIG    1       -1.852  -0.233   1.994  0.00  0.00    +0.020 C 
ATOM     16  C   LIG    1       -1.507  -1.492   1.889  0.00  0.00    -0.060 C 
ENDBRANCH  14  16
ENDBRANCH  13  14
ENDBRANCH  12  13
ENDBRANCH  11  12
ENDBRANCH   1  11
TORSDOF 8
ENDMDL
MODEL      227
REMARK  Name = ZINC000308683426
REMARK                            x       y       z     vdW  Elec       q    Type
REMARK                         _______ _______ _______ _____ _____    ______ ____
ROOT
ATOM      1  N   LIG    1        3.122  -3.004   3.379  0.00  0.00    -0.500 N 
ATOM      2  H   LIG    1        2.339  -2.372   3.304  0.00  0.00    +0.430 HD
ATOM      3  H   LIG    1        3.975  -2.473   3.468  0.00  0.00    +0.420 HD
ENDROOT
BRANCH   1   4
ATOM      4  C   LIG    1        2.951  -3.857   4.562  0.00  0.00    +0.130 C 
ATOM      5  C   LIG    1        4.278  -4.293   5.205  0.00  0.00    +0.090 C 
ATOM      6  C   LIG    1        4.199  -3.012   6.051  0.00  0.00    -0.100 C 
ATOM      7  C   LIG    1        4.857  -1.799   5.391  0.00  0.00    +0.060 C 
ATOM      8  C   LIG    1        4.637  -3.209   7.504  0.00  0.00    +0.070 C 
ATOM      9  C   LIG    1        2.675  -3.071   5.854  0.00  0.00    +0.090 C 
ENDBRANCH   1   4
BRANCH   1  10
ATOM     10  C   LIG    1        3.192  -3.843   2.175  0.00  0.00    +0.170 C 
ATOM     11  C   LIG    1        4.449  -4.713   2.232  0.00  0.00    +0.090 C 
BRANCH  10  12
ATOM     12  C   LIG    1        3.244  -2.951   0.934  0.00  0.00    +0.060 C 
BRANCH  12  13
ATOM     13  C   LIG    1        1.933  -2.172   0.809  0.00  0.00    +0.010 C 
BRANCH  13  14
ATOM     14  C   LIG    1        1.986  -1.280  -0.433  0.00  0.00    +0.060 C 
BRANCH  14  16
ATOM     15  C   LIG    1        0.715   0.794  -0.641  0.00  0.00    +0.020 C 
ATOM     16  C   LIG    1        0.695  -0.513  -0.556  0.00  0.00    -0.060 C 
ENDBRANCH  14  16
ENDBRANCH  13  14
ENDBRANCH  12  13
ENDBRANCH  10  12
ENDBRANCH   1  10
TORSDOF 6
ENDMDL
MODEL      228
REMARK  Name = ZINC000308683429
REMARK                            x       y       z     vdW  Elec       q    Type
REMARK                         _______ _______ _______ _____ _____    ______ ____
ROOT
ATOM      1  N   LIG    1        1.741  -4.044   2.497  0.00  0.00    -0.500 N 
ATOM      2  H   LIG    1        2.009  -4.501   1.638  0.00  0.00    +0.420 HD
ATOM      3  H   LIG    1        0.826  -3.632   2.387  0.00  0.00    +0.420 HD
ENDROOT
BRANCH   1   4
ATOM      4  C   LIG    1        1.707  -5.028   3.586  0.00  0.00    +0.130 C 
ATOM      5  C   LIG    1        0.693  -4.690   4.691  0.00  0.00    +0.090 C 
ATOM      6  C   LIG    1       -0.343  -5.481   3.874  0.00  0.00    -0.100 C 
ATOM      7  C   LIG    1       -1.096  -4.628   2.851  0.00  0.00    +0.060 C 
ATOM      8  C   LIG    1       -1.273  -6.341   4.731  0.00  0.00    +0.070 C 
ATOM      9  C   LIG    1        0.841  -6.261   3.276  0.00  0.00    +0.090 C 
ENDBRANCH   1   4
BRANCH   1  10
ATOM     10  C   LIG    1        2.715  -2.992   2.817  0.00  0.00    +0.170 C 
ATOM     11  C   LIG    1        4.120  -3.595   2.860  0.00  0.00    +0.090 C 
BRANCH  10  12
ATOM     12  C   LIG    1        2.660  -1.903   1.744  0.00  0.00    +0.060 C 
BRANCH  12  13
ATOM     13  C   LIG    1        1.294  -1.214   1.784  0.00  0.00    +0.000 C 
BRANCH  13  14
ATOM     14  C   LIG    1        1.240  -0.125   0.712  0.00  0.00    +0.070 C 
BRANCH  14  16
ATOM     15  C   LIG    1       -0.180   1.853   0.890  0.00  0.00    +0.030 C 
ATOM     16  C   LIG    1       -0.105   0.553   0.752  0.00  0.00    -0.070 C 
ENDBRANCH  14  16
ENDBRANCH  13  14
ENDBRANCH  12  13
ENDBRANCH  10  12
ENDBRANCH   1  10
TORSDOF 6
ENDMDL
MODEL      229
REMARK  Name = ZINC001172350131
REMARK                            x       y       z     vdW  Elec       q    Type
REMARK                         _______ _______ _______ _____ _____    ______ ____
ROOT
ATOM      1  C   LIG    1        2.596  -2.478   1.026  0.00  0.00    +0.160 C 
ENDROOT
BRANCH   1   2
ATOM      2  N   LIG    1        1.362  -1.703   1.214  0.00  0.00    -0.510 N 
ATOM      3  H   LIG    1        0.564  -2.311   1.107  0.00  0.00    +0.430 HD
ATOM      4  H   LIG    1        1.356  -1.300   2.139  0.00  0.00    +0.430 HD
BRANCH   2   5
ATOM      5  C   LIG    1        1.299  -0.631   0.212  0.00  0.00    +0.300 C 
BRANCH   5   7
ATOM      6  C   LIG    1       -0.058   1.379   0.492  0.00  0.00    +0.130 C 
ATOM      7  C   LIG    1       -0.025   0.081   0.321  0.00  0.00    -0.110 C 
ENDBRANCH   5   7
ENDBRANCH   2   5
ENDBRANCH   1   2
BRANCH   1   8
ATOM      8  C   LIG    1        3.805  -1.592   1.331  0.00  0.00    +0.030 C 
ATOM      9  C   LIG    1        5.091  -2.354   1.003  0.00  0.00    +0.060 C 
ENDBRANCH   1   8
BRANCH   1  10
ATOM     10  C   LIG    1        2.593  -3.680   1.973  0.00  0.00    +0.060 C 
BRANCH  10  11
ATOM     11  C   LIG    1        1.456  -4.629   1.588  0.00  0.00    +0.010 C 
BRANCH  11  12
ATOM     12  C   LIG    1        1.453  -5.831   2.534  0.00  0.00    +0.020 C 
BRANCH  12  13
ATOM     13  C   LIG    1        0.317  -6.780   2.150  0.00  0.00    +0.000 C 
BRANCH  13  14
ATOM     14  C   LIG    1        0.314  -7.983   3.096  0.00  0.00    +0.000 C 
BRANCH  14  15
ATOM     15  C   LIG    1       -0.823  -8.932   2.711  0.00  0.00    -0.010 C 
ATOM     16  C   LIG    1       -0.826 -10.134   3.658  0.00  0.00    +0.000 C 
ENDBRANCH  14  15
ENDBRANCH  13  14
ENDBRANCH  12  13
ENDBRANCH  11  12
ENDBRANCH  10  11
ENDBRANCH   1  10
TORSDOF 10
ENDMDL
MODEL      230
REMARK  Name = ZINC000308685713
REMARK                            x       y       z     vdW  Elec       q    Type
REMARK                         _______ _______ _______ _____ _____    ______ ____
ROOT
ATOM      1  N   LIG    1       -3.921  -4.241  -2.347  0.00  0.00    -0.510 N 
ATOM      2  H   LIG    1       -4.696  -3.598  -2.419  0.00  0.00    +0.430 HD
ATOM      3  H   LIG    1       -3.996  -4.763  -1.486  0.00  0.00    +0.430 HD
ENDROOT
BRANCH   1   4
ATOM      4  C   LIG    1       -3.946  -5.168  -3.486  0.00  0.00    +0.170 C 
ATOM      5  C   LIG    1       -3.958  -4.371  -4.792  0.00  0.00    +0.090 C 
BRANCH   4   6
ATOM      6  C   LIG    1       -5.202  -6.038  -3.408  0.00  0.00    +0.060 C 
BRANCH   6   7
ATOM      7  C   LIG    1       -5.131  -6.927  -2.165  0.00  0.00    +0.040 C 
BRANCH   7   8
ATOM      8  C   LIG    1       -6.387  -7.797  -2.087  0.00  0.00    -0.060 C 
ATOM      9  C   LIG    1       -6.204  -9.312  -2.191  0.00  0.00    +0.030 C 
ATOM     10  C   LIG    1       -6.562  -8.675  -0.847  0.00  0.00    +0.020 C 
ENDBRANCH   7   8
ENDBRANCH   6   7
ENDBRANCH   4   6
ENDBRANCH   1   4
BRANCH   1  11
ATOM     11  C   LIG    1       -2.659  -3.489  -2.355  0.00  0.00    +0.250 C 
BRANCH  11  12
ATOM     12  C   LIG    1       -2.633  -2.524  -1.168  0.00  0.00    +0.030 C 
BRANCH  12  13
ATOM     13  C   LIG    1       -1.319  -1.741  -1.176  0.00  0.00    +0.050 C 
BRANCH  13  14
ATOM     14  C   LIG    1       -1.293  -0.775   0.010  0.00  0.00    +0.050 C 
BRANCH  14  16
ATOM     15  C   LIG    1       -0.016   1.306   0.009  0.00  0.00    +0.020 C 
ATOM     16  C   LIG    1        0.002  -0.004   0.002  0.00  0.00    -0.060 C 
ENDBRANCH  14  16
ENDBRANCH  13  14
ENDBRANCH  12  13
ENDBRANCH  11  12
ENDBRANCH   1  11
TORSDOF 9
ENDMDL
MODEL      231
REMARK  Name = ZINC000308685714
REMARK                            x       y       z     vdW  Elec       q    Type
REMARK                         _______ _______ _______ _____ _____    ______ ____
ROOT
ATOM      1  N   LIG    1       -3.921  -4.241  -2.347  0.00  0.00    -0.510 N 
ATOM      2  H   LIG    1       -4.696  -3.598  -2.419  0.00  0.00    +0.430 HD
ATOM      3  H   LIG    1       -3.996  -4.763  -1.486  0.00  0.00    +0.430 HD
ENDROOT
BRANCH   1   4
ATOM      4  C   LIG    1       -3.946  -5.168  -3.486  0.00  0.00    +0.170 C 
ATOM      5  C   LIG    1       -2.848  -6.219  -3.313  0.00  0.00    +0.090 C 
BRANCH   4   6
ATOM      6  C   LIG    1       -5.309  -5.860  -3.550  0.00  0.00    +0.060 C 
BRANCH   6   7
ATOM      7  C   LIG    1       -6.394  -4.824  -3.848  0.00  0.00    +0.040 C 
BRANCH   7   8
ATOM      8  C   LIG    1       -7.757  -5.516  -3.912  0.00  0.00    -0.050 C 
ATOM      9  C   LIG    1       -8.800  -5.121  -2.865  0.00  0.00    +0.010 C 
ATOM     10  C   LIG    1       -8.963  -4.666  -4.317  0.00  0.00    +0.020 C 
ENDBRANCH   7   8
ENDBRANCH   6   7
ENDBRANCH   4   6
ENDBRANCH   1   4
BRANCH   1  11
ATOM     11  C   LIG    1       -2.659  -3.489  -2.355  0.00  0.00    +0.250 C 
BRANCH  11  12
ATOM     12  C   LIG    1       -2.633  -2.524  -1.168  0.00  0.00    +0.030 C 
BRANCH  12  13
ATOM     13  C   LIG    1       -1.319  -1.741  -1.176  0.00  0.00    +0.050 C 
BRANCH  13  14
ATOM     14  C   LIG    1       -1.293  -0.775   0.010  0.00  0.00    +0.060 C 
BRANCH  14  16
ATOM     15  C   LIG    1       -0.016   1.306   0.009  0.00  0.00    +0.020 C 
ATOM     16  C   LIG    1        0.002  -0.004   0.002  0.00  0.00    -0.060 C 
ENDBRANCH  14  16
ENDBRANCH  13  14
ENDBRANCH  12  13
ENDBRANCH  11  12
ENDBRANCH   1  11
TORSDOF 9
ENDMDL
MODEL      232
REMARK  Name = ZINC001172356290
REMARK                            x       y       z     vdW  Elec       q    Type
REMARK                         _______ _______ _______ _____ _____    ______ ____
ROOT
ATOM      1  C   LIG    1        2.185  -6.066  -3.776  0.00  0.00    +0.170 C 
ENDROOT
BRANCH   1   2
ATOM      2  N   LIG    1        3.041  -6.455  -2.647  0.00  0.00    -0.410 N 
ATOM      3  C   LIG    1        2.310  -6.582  -1.373  0.00  0.00    +0.290 C 
ATOM      4  C   LIG    1        3.192  -7.797  -1.052  0.00  0.00    +0.090 C 
ATOM      5  C   LIG    1        3.300  -7.906  -2.580  0.00  0.00    +0.290 C 
ATOM      6  H   LIG    1        3.877  -5.895  -2.576  0.00  0.00    +0.430 HD
ENDBRANCH   1   2
BRANCH   1   7
ATOM      7  C   LIG    1        2.785  -6.600  -5.078  0.00  0.00    +0.020 C 
ATOM      8  C   LIG    1        1.825  -6.314  -6.236  0.00  0.00    +0.060 C 
ENDBRANCH   1   7
BRANCH   1   9
ATOM      9  C   LIG    1        2.094  -4.540  -3.844  0.00  0.00    +0.060 C 
BRANCH   9  10
ATOM     10  C   LIG    1        1.381  -4.016  -2.595  0.00  0.00    -0.000 C 
BRANCH  10  11
ATOM     11  C   LIG    1        1.290  -2.490  -2.663  0.00  0.00    +0.020 C 
BRANCH  11  12
ATOM     12  C   LIG    1        0.577  -1.966  -1.415  0.00  0.00    +0.000 C 
BRANCH  12  13
ATOM     13  C   LIG    1        0.486  -0.440  -1.483  0.00  0.00    +0.000 C 
BRANCH  13  15
ATOM     14  C   LIG    1       -0.319   1.610  -0.303  0.00  0.00    +0.000 C 
ATOM     15  C   LIG    1       -0.227   0.084  -0.235  0.00  0.00    -0.010 C 
ENDBRANCH  13  15
ENDBRANCH  12  13
ENDBRANCH  11  12
ENDBRANCH  10  11
ENDBRANCH   9  10
ENDBRANCH   1   9
TORSDOF 8
ENDMDL
MODEL      233
REMARK  Name = ZINC000308686550
REMARK                            x       y       z     vdW  Elec       q    Type
REMARK                         _______ _______ _______ _____ _____    ______ ____
ROOT
ATOM      1  C   LIG    1        2.747  -2.214   1.225  0.00  0.00    +0.250 C 
ENDROOT
BRANCH   1   2
ATOM      2  N   LIG    1        1.418  -1.590   1.179  0.00  0.00    -0.510 N 
ATOM      3  H   LIG    1        0.710  -2.308   1.142  0.00  0.00    +0.430 HD
ATOM      4  H   LIG    1        1.282  -1.026   2.006  0.00  0.00    +0.430 HD
BRANCH   2   5
ATOM      5  C   LIG    1        1.317  -0.740  -0.015  0.00  0.00    +0.200 C 
ATOM      6  C   LIG    1        1.398  -1.611  -1.269  0.00  0.00    +0.090 C 
BRANCH   5   8
ATOM      7  C   LIG    1       -0.016   1.306   0.009  0.00  0.00    +0.130 C 
ATOM      8  C   LIG    1        0.002  -0.004   0.002  0.00  0.00    -0.100 C 
ENDBRANCH   5   8
ENDBRANCH   2   5
ENDBRANCH   1   2
BRANCH   1   9
ATOM      9  C   LIG    1        2.852  -3.099   2.469  0.00  0.00    +0.030 C 
BRANCH   9  10
ATOM     10  C   LIG    1        4.236  -3.750   2.517  0.00  0.00    +0.030 C 
BRANCH  10  11
ATOM     11  C   LIG    1        4.341  -4.635   3.760  0.00  0.00    -0.020 C 
ATOM     12  C   LIG    1        3.351  -5.796   3.644  0.00  0.00    +0.000 C 
ATOM     13  C   LIG    1        3.456  -6.681   4.888  0.00  0.00    +0.000 C 
ATOM     14  C   LIG    1        4.879  -7.233   5.003  0.00  0.00    +0.000 C 
ATOM     15  C   LIG    1        5.868  -6.071   5.119  0.00  0.00    +0.010 C 
ATOM     16  C   LIG    1        5.763  -5.186   3.875  0.00  0.00    +0.000 C 
ENDBRANCH  10  11
ENDBRANCH   9  10
ENDBRANCH   1   9
TORSDOF 6
ENDMDL
MODEL      234
REMARK  Name = ZINC000308686549
REMARK                            x       y       z     vdW  Elec       q    Type
REMARK                         _______ _______ _______ _____ _____    ______ ____
ROOT
ATOM      1  C   LIG    1        2.777  -2.102  -1.344  0.00  0.00    +0.250 C 
ENDROOT
BRANCH   1   2
ATOM      2  N   LIG    1        1.447  -1.483  -1.275  0.00  0.00    -0.510 N 
ATOM      3  H   LIG    1        1.330  -0.850  -2.052  0.00  0.00    +0.430 HD
ATOM      4  H   LIG    1        0.739  -2.201  -1.317  0.00  0.00    +0.430 HD
BRANCH   2   5
ATOM      5  C   LIG    1        1.317  -0.740  -0.015  0.00  0.00    +0.200 C 
ATOM      6  C   LIG    1        1.370  -1.717   1.161  0.00  0.00    +0.090 C 
BRANCH   5   8
ATOM      7  C   LIG    1       -0.016   1.306   0.009  0.00  0.00    +0.130 C 
ATOM      8  C   LIG    1        0.002  -0.004   0.002  0.00  0.00    -0.100 C 
ENDBRANCH   5   8
ENDBRANCH   2   5
ENDBRANCH   1   2
BRANCH   1   9
ATOM      9  C   LIG    1        2.912  -2.876  -2.656  0.00  0.00    +0.030 C 
BRANCH   9  10
ATOM     10  C   LIG    1        4.297  -3.522  -2.728  0.00  0.00    +0.030 C 
BRANCH  10  11
ATOM     11  C   LIG    1        4.432  -4.296  -4.041  0.00  0.00    -0.020 C 
ATOM     12  C   LIG    1        4.380  -3.318  -5.217  0.00  0.00    +0.000 C 
ATOM     13  C   LIG    1        4.515  -4.092  -6.530  0.00  0.00    +0.000 C 
ATOM     14  C   LIG    1        5.850  -4.839  -6.546  0.00  0.00    +0.000 C 
ATOM     15  C   LIG    1        5.903  -5.816  -5.370  0.00  0.00    +0.010 C 
ATOM     16  C   LIG    1        5.768  -5.043  -4.058  0.00  0.00    +0.000 C 
ENDBRANCH  10  11
ENDBRANCH   9  10
ENDBRANCH   1   9
TORSDOF 6
ENDMDL
MODEL      235
REMARK  Name = ZINC000308717445
REMARK                            x       y       z     vdW  Elec       q    Type
REMARK                         _______ _______ _______ _____ _____    ______ ____
ROOT
ATOM      1  N   LIG    1       -3.717  -1.664  -1.190  0.00  0.00    -0.500 N 
ATOM      2  H   LIG    1       -3.903  -0.958  -1.886  0.00  0.00    +0.420 HD
ATOM      3  H   LIG    1       -3.544  -1.221  -0.300  0.00  0.00    +0.420 HD
ENDROOT
BRANCH   1   4
ATOM      4  C   LIG    1       -2.536  -2.443  -1.586  0.00  0.00    +0.160 C 
BRANCH   4   5
ATOM      5  C   LIG    1       -2.527  -2.618  -3.106  0.00  0.00    +0.060 C 
ATOM      6  C   LIG    1       -3.708  -3.496  -3.525  0.00  0.00    +0.030 C 
ENDBRANCH   4   5
BRANCH   4   7
ATOM      7  C   LIG    1       -1.268  -1.705  -1.151  0.00  0.00    +0.060 C 
BRANCH   7   8
ATOM      8  C   LIG    1       -1.216  -1.639   0.377  0.00  0.00    +0.040 C 
BRANCH   8  10
ATOM      9  C   LIG    1       -0.054   0.128   1.597  0.00  0.00    +0.040 C 
ATOM     10  C   LIG    1        0.033  -0.912   0.806  0.00  0.00    -0.050 C 
ENDBRANCH   8  10
ENDBRANCH   7   8
ENDBRANCH   4   7
ENDBRANCH   1   4
BRANCH   1  11
ATOM     11  C   LIG    1       -4.877  -2.558  -1.075  0.00  0.00    +0.160 C 
BRANCH  11  12
ATOM     12  C   LIG    1       -6.162  -1.754  -1.280  0.00  0.00    +0.050 C 
ATOM     13  C   LIG    1       -6.212  -1.230  -2.717  0.00  0.00    +0.050 C 
ENDBRANCH  11  12
BRANCH  11  14
ATOM     14  C   LIG    1       -4.892  -3.198   0.315  0.00  0.00    +0.100 C 
BRANCH  14  15
ATOM     15  C   LIG    1       -3.719  -4.135   0.449  0.00  0.00    -0.090 C 
ATOM     16  C   LIG    1       -2.891  -4.007   1.456  0.00  0.00    +0.060 C 
ENDBRANCH  14  15
ENDBRANCH  11  14
ENDBRANCH   1  11
TORSDOF 9
ENDMDL
MODEL      236
REMARK  Name = ZINC000308717446
REMARK                            x       y       z     vdW  Elec       q    Type
REMARK                         _______ _______ _______ _____ _____    ______ ____
ROOT
ATOM      1  N   LIG    1       -3.452  -4.812   1.855  0.00  0.00    -0.510 N 
ATOM      2  H   LIG    1       -3.878  -4.827   2.770  0.00  0.00    +0.420 HD
ATOM      3  H   LIG    1       -3.118  -5.737   1.626  0.00  0.00    +0.420 HD
ENDROOT
BRANCH   1   4
ATOM      4  C   LIG    1       -2.325  -3.870   1.855  0.00  0.00    +0.160 C 
BRANCH   4   5
ATOM      5  C   LIG    1       -1.245  -4.368   0.892  0.00  0.00    +0.050 C 
ATOM      6  C   LIG    1       -1.871  -4.648  -0.476  0.00  0.00    +0.040 C 
ENDBRANCH   4   5
BRANCH   4   7
ATOM      7  C   LIG    1       -1.743  -3.771   3.267  0.00  0.00    +0.070 C 
BRANCH   7   8
ATOM      8  C   LIG    1       -2.783  -3.157   4.205  0.00  0.00    +0.040 C 
BRANCH   8  10
ATOM      9  C   LIG    1       -2.192  -1.906   6.217  0.00  0.00    +0.050 C 
ATOM     10  C   LIG    1       -2.210  -3.059   5.595  0.00  0.00    -0.060 C 
ENDBRANCH   8  10
ENDBRANCH   7   8
ENDBRANCH   4   7
ENDBRANCH   1   4
BRANCH   1  11
ATOM     11  C   LIG    1       -4.445  -4.389   0.859  0.00  0.00    +0.160 C 
BRANCH  11  12
ATOM     12  C   LIG    1       -5.457  -5.515   0.636  0.00  0.00    +0.050 C 
ATOM     13  C   LIG    1       -4.751  -6.717   0.006  0.00  0.00    +0.050 C 
ENDBRANCH  11  12
BRANCH  11  14
ATOM     14  C   LIG    1       -5.173  -3.141   1.363  0.00  0.00    +0.080 C 
BRANCH  14  15
ATOM     15  C   LIG    1       -4.998  -2.021   0.370  0.00  0.00    -0.080 C 
ATOM     16  C   LIG    1       -6.043  -1.516  -0.238  0.00  0.00    +0.070 C 
ENDBRANCH  14  15
ENDBRANCH  11  14
ENDBRANCH   1  11
TORSDOF 9
ENDMDL
MODEL      237
REMARK  Name = ZINC000308717226
REMARK                            x       y       z     vdW  Elec       q    Type
REMARK                         _______ _______ _______ _____ _____    ______ ____
ROOT
ATOM      1  N   LIG    1       -2.250  -3.033   0.032  0.00  0.00    -0.500 N 
ATOM      2  H   LIG    1       -2.155  -2.512   0.890  0.00  0.00    +0.420 HD
ATOM      3  H   LIG    1       -1.567  -3.776   0.011  0.00  0.00    +0.420 HD
ENDROOT
BRANCH   1   4
ATOM      4  C   LIG    1       -2.033  -2.136  -1.111  0.00  0.00    +0.160 C 
BRANCH   4   5
ATOM      5  C   LIG    1       -0.539  -2.080  -1.439  0.00  0.00    +0.050 C 
ATOM      6  C   LIG    1       -0.071  -3.453  -1.926  0.00  0.00    +0.030 C 
ENDBRANCH   4   5
BRANCH   4   7
ATOM      7  C   LIG    1       -2.531  -0.733  -0.761  0.00  0.00    +0.060 C 
BRANCH   7   8
ATOM      8  C   LIG    1       -4.053  -0.756  -0.608  0.00  0.00    +0.050 C 
BRANCH   8  10
ATOM      9  C   LIG    1       -5.483   1.128  -1.214  0.00  0.00    +0.050 C 
ATOM     10  C   LIG    1       -4.560   0.650  -0.417  0.00  0.00    -0.060 C 
ENDBRANCH   8  10
ENDBRANCH   7   8
ENDBRANCH   4   7
ENDBRANCH   1   4
BRANCH   1  11
ATOM     11  C   LIG    1       -3.600  -3.607  -0.046  0.00  0.00    +0.160 C 
BRANCH  11  12
ATOM     12  C   LIG    1       -4.021  -4.109   1.337  0.00  0.00    +0.050 C 
ATOM     13  C   LIG    1       -4.157  -2.921   2.291  0.00  0.00    +0.040 C 
ENDBRANCH  11  12
BRANCH  11  14
ATOM     14  C   LIG    1       -3.602  -4.774  -1.035  0.00  0.00    +0.100 C 
BRANCH  14  15
ATOM     15  C   LIG    1       -3.389  -4.250  -2.432  0.00  0.00    -0.090 C 
ATOM     16  C   LIG    1       -2.437  -4.748  -3.181  0.00  0.00    +0.070 C 
ENDBRANCH  14  15
ENDBRANCH  11  14
ENDBRANCH   1  11
TORSDOF 9
ENDMDL
MODEL      238
REMARK  Name = ZINC000308717447
REMARK                            x       y       z     vdW  Elec       q    Type
REMARK                         _______ _______ _______ _____ _____    ______ ____
ROOT
ATOM      1  N   LIG    1       -4.160  -1.251  -1.183  0.00  0.00    -0.510 N 
ATOM      2  H   LIG    1       -4.347  -0.789  -2.060  0.00  0.00    +0.420 HD
ATOM      3  H   LIG    1       -4.262  -0.591  -0.427  0.00  0.00    +0.420 HD
ENDROOT
BRANCH   1   4
ATOM      4  C   LIG    1       -2.790  -1.780  -1.190  0.00  0.00    +0.160 C 
BRANCH   4   5
ATOM      5  C   LIG    1       -1.947  -0.997  -2.199  0.00  0.00    +0.050 C 
ATOM      6  C   LIG    1       -2.460  -1.271  -3.614  0.00  0.00    +0.020 C 
ENDBRANCH   4   5
BRANCH   4   7
ATOM      7  C   LIG    1       -2.180  -1.635   0.205  0.00  0.00    +0.060 C 
BRANCH   7   8
ATOM      8  C   LIG    1       -2.801  -2.672   1.143  0.00  0.00    +0.040 C 
BRANCH   8  10
ATOM      9  C   LIG    1       -2.758  -2.465   3.576  0.00  0.00    +0.040 C 
ATOM     10  C   LIG    1       -2.082  -2.645   2.468  0.00  0.00    -0.050 C 
ENDBRANCH   8  10
ENDBRANCH   7   8
ENDBRANCH   4   7
ENDBRANCH   1   4
BRANCH   1  11
ATOM     11  C   LIG    1       -5.110  -2.357  -1.000  0.00  0.00    +0.160 C 
BRANCH  11  12
ATOM     12  C   LIG    1       -6.521  -1.793  -0.821  0.00  0.00    +0.050 C 
ATOM     13  C   LIG    1       -6.590  -0.995   0.483  0.00  0.00    +0.030 C 
ENDBRANCH  11  12
BRANCH  11  14
ATOM     14  C   LIG    1       -5.077  -3.267  -2.229  0.00  0.00    +0.090 C 
BRANCH  14  15
ATOM     15  C   LIG    1       -4.080  -4.375  -2.007  0.00  0.00    -0.090 C 
ATOM     16  C   LIG    1       -4.477  -5.624  -2.014  0.00  0.00    +0.090 C 
ENDBRANCH  14  15
ENDBRANCH  11  14
ENDBRANCH   1  11
TORSDOF 9
ENDMDL
MODEL      239
REMARK  Name = ZINC000308724765
REMARK                            x       y       z     vdW  Elec       q    Type
REMARK                         _______ _______ _______ _____ _____    ______ ____
ROOT
ATOM      1  C   LIG    1        4.617  -4.906   3.057  0.00  0.00    +0.150 C 
ATOM      2  C   LIG    1        5.269  -5.850   4.069  0.00  0.00    +0.090 C 
ENDROOT
BRANCH   1   3
ATOM      3  N   LIG    1        5.442  -3.699   2.911  0.00  0.00    -0.510 N 
ATOM      4  H   LIG    1        5.594  -3.284   3.818  0.00  0.00    +0.420 HD
ATOM      5  H   LIG    1        4.968  -3.038   2.314  0.00  0.00    +0.420 HD
BRANCH   3   6
ATOM      6  C   LIG    1        6.735  -4.059   2.314  0.00  0.00    +0.160 C 
BRANCH   6   7
ATOM      7  C   LIG    1        7.791  -3.032   2.728  0.00  0.00    +0.050 C 
ATOM      8  C   LIG    1        7.971  -3.069   4.247  0.00  0.00    +0.040 C 
ENDBRANCH   6   7
BRANCH   6   9
ATOM      9  C   LIG    1        6.607  -4.072   0.790  0.00  0.00    +0.050 C 
ATOM     10  C   LIG    1        5.658  -5.196   0.367  0.00  0.00    +0.030 C 
ENDBRANCH   6   9
ENDBRANCH   3   6
ENDBRANCH   1   3
BRANCH   1  11
ATOM     11  C   LIG    1        3.223  -4.514   3.550  0.00  0.00    +0.050 C 
BRANCH  11  12
ATOM     12  C   LIG    1        2.522  -3.671   2.483  0.00  0.00    -0.000 C 
BRANCH  12  13
ATOM     13  C   LIG    1        1.127  -3.280   2.976  0.00  0.00    +0.020 C 
BRANCH  13  14
ATOM     14  C   LIG    1        0.427  -2.437   1.908  0.00  0.00    +0.050 C 
BRANCH  14  16
ATOM     15  C   LIG    1       -1.299  -0.790   2.428  0.00  0.00    +0.020 C 
ATOM     16  C   LIG    1       -0.947  -2.051   2.394  0.00  0.00    -0.060 C 
ENDBRANCH  14  16
ENDBRANCH  13  14
ENDBRANCH  12  13
ENDBRANCH  11  12
ENDBRANCH   1  11
TORSDOF 9
ENDMDL
MODEL      240
REMARK  Name = ZINC000308724764
REMARK                            x       y       z     vdW  Elec       q    Type
REMARK                         _______ _______ _______ _____ _____    ______ ____
ROOT
ATOM      1  C   LIG    1        3.787  -4.499   1.825  0.00  0.00    +0.160 C 
ATOM      2  C   LIG    1        3.932  -5.178   3.188  0.00  0.00    +0.080 C 
ENDROOT
BRANCH   1   3
ATOM      3  N   LIG    1        4.288  -5.396   0.775  0.00  0.00    -0.510 N 
ATOM      4  H   LIG    1        4.177  -4.955  -0.125  0.00  0.00    +0.420 HD
ATOM      5  H   LIG    1        3.767  -6.259   0.793  0.00  0.00    +0.420 HD
BRANCH   3   6
ATOM      6  C   LIG    1        5.711  -5.677   1.010  0.00  0.00    +0.160 C 
BRANCH   6   7
ATOM      7  C   LIG    1        6.521  -4.391   0.835  0.00  0.00    +0.040 C 
ATOM      8  C   LIG    1        6.624  -3.666   2.178  0.00  0.00    +0.030 C 
ENDBRANCH   6   7
BRANCH   6   9
ATOM      9  C   LIG    1        6.196  -6.725   0.007  0.00  0.00    +0.050 C 
ATOM     10  C   LIG    1        5.473  -8.050   0.264  0.00  0.00    +0.030 C 
ENDBRANCH   6   9
ENDBRANCH   3   6
ENDBRANCH   1   3
BRANCH   1  11
ATOM     11  C   LIG    1        2.312  -4.185   1.566  0.00  0.00    +0.050 C 
BRANCH  11  12
ATOM     12  C   LIG    1        2.179  -3.396   0.262  0.00  0.00    -0.000 C 
BRANCH  12  13
ATOM     13  C   LIG    1        0.704  -3.083   0.003  0.00  0.00    +0.020 C 
BRANCH  13  14
ATOM     14  C   LIG    1        0.572  -2.293  -1.301  0.00  0.00    +0.050 C 
BRANCH  14  16
ATOM     15  C   LIG    1       -1.265  -0.746  -1.743  0.00  0.00    +0.020 C 
ATOM     16  C   LIG    1       -0.881  -1.985  -1.556  0.00  0.00    -0.060 C 
ENDBRANCH  14  16
ENDBRANCH  13  14
ENDBRANCH  12  13
ENDBRANCH  11  12
ENDBRANCH   1  11
TORSDOF 9
ENDMDL
MODEL      241
REMARK  Name = ZINC000308730024
REMARK                            x       y       z     vdW  Elec       q    Type
REMARK                         _______ _______ _______ _____ _____    ______ ____
ROOT
ATOM      1  N   LIG    1        2.858  -3.746   2.086  0.00  0.00    -0.510 N 
ATOM      2  H   LIG    1        2.493  -3.469   2.985  0.00  0.00    +0.420 HD
ATOM      3  H   LIG    1        2.889  -2.945   1.474  0.00  0.00    +0.430 HD
ENDROOT
BRANCH   1   4
ATOM      4  C   LIG    1        1.989  -4.776   1.502  0.00  0.00    +0.250 C 
BRANCH   4   5
ATOM      5  C   LIG    1        0.610  -4.178   1.217  0.00  0.00    +0.040 C 
BRANCH   5   6
ATOM      6  C   LIG    1       -0.295  -5.250   0.608  0.00  0.00    +0.070 C 
BRANCH   6   8
ATOM      7  C   LIG    1       -2.163  -4.734  -0.877  0.00  0.00    +0.030 C 
ATOM      8  C   LIG    1       -1.654  -4.661   0.327  0.00  0.00    -0.070 C 
ENDBRANCH   6   8
ENDBRANCH   5   6
ENDBRANCH   4   5
ENDBRANCH   1   4
BRANCH   1   9
ATOM      9  C   LIG    1        4.214  -4.287   2.254  0.00  0.00    +0.170 C 
BRANCH   9  10
ATOM     10  C   LIG    1        4.187  -5.421   3.281  0.00  0.00    -0.010 C 
ATOM     11  C   LIG    1        3.683  -4.882   4.622  0.00  0.00    +0.050 C 
BRANCH  10  12
ATOM     12  C   LIG    1        5.599  -5.984   3.457  0.00  0.00    +0.030 C 
BRANCH  12  13
ATOM     13  C   LIG    1        5.552  -7.197   4.388  0.00  0.00    +0.000 C 
ATOM     14  C   LIG    1        6.964  -7.760   4.563  0.00  0.00    +0.020 C 
ENDBRANCH  12  13
ENDBRANCH  10  12
ENDBRANCH   9  10
BRANCH   9  15
ATOM     15  C   LIG    1        5.148  -3.179   2.743  0.00  0.00    +0.060 C 
ATOM     16  C   LIG    1        5.272  -2.103   1.661  0.00  0.00    +0.020 C 
ENDBRANCH   9  15
ENDBRANCH   1   9
TORSDOF 9
ENDMDL
MODEL      242
REMARK  Name = ZINC000308729586
REMARK                            x       y       z     vdW  Elec       q    Type
REMARK                         _______ _______ _______ _____ _____    ______ ____
ROOT
ATOM      1  N   LIG    1       -2.831  -3.191  -2.099  0.00  0.00    -0.510 N 
ATOM      2  H   LIG    1       -1.976  -3.727  -2.111  0.00  0.00    +0.430 HD
ATOM      3  H   LIG    1       -2.870  -2.603  -2.918  0.00  0.00    +0.430 HD
ENDROOT
BRANCH   1   4
ATOM      4  C   LIG    1       -2.867  -2.353  -0.893  0.00  0.00    +0.250 C 
BRANCH   4   5
ATOM      5  C   LIG    1       -1.739  -1.322  -0.954  0.00  0.00    +0.040 C 
BRANCH   5   6
ATOM      6  C   LIG    1       -1.777  -0.449   0.302  0.00  0.00    +0.070 C 
BRANCH   6   8
ATOM      7  C   LIG    1       -0.937   1.843   0.360  0.00  0.00    +0.030 C 
ATOM      8  C   LIG    1       -0.665   0.567   0.241  0.00  0.00    -0.070 C 
ENDBRANCH   6   8
ENDBRANCH   5   6
ENDBRANCH   4   5
ENDBRANCH   1   4
BRANCH   1   9
ATOM      9  C   LIG    1       -3.981  -4.105  -2.096  0.00  0.00    +0.170 C 
BRANCH   9  10
ATOM     10  C   LIG    1       -4.018  -4.884  -3.412  0.00  0.00    +0.070 C 
BRANCH  10  11
ATOM     11  C   LIG    1       -4.272  -3.918  -4.570  0.00  0.00    +0.040 C 
BRANCH  11  12
ATOM     12  C   LIG    1       -4.307  -4.685  -5.866  0.00  0.00    -0.070 C 
ATOM     13  C   LIG    1       -5.348  -4.589  -6.656  0.00  0.00    +0.050 C 
ENDBRANCH  11  12
ENDBRANCH  10  11
ENDBRANCH   9  10
BRANCH   9  14
ATOM     14  C   LIG    1       -3.852  -5.083  -0.927  0.00  0.00    +0.040 C 
BRANCH  14  15
ATOM     15  C   LIG    1       -5.108  -5.953  -0.849  0.00  0.00    +0.030 C 
ATOM     16  C   LIG    1       -5.037  -6.842   0.395  0.00  0.00    +0.030 C 
ENDBRANCH  14  15
ENDBRANCH   9  14
ENDBRANCH   1   9
TORSDOF 10
ENDMDL
MODEL      243
REMARK  Name = ZINC000308729660
REMARK                            x       y       z     vdW  Elec       q    Type
REMARK                         _______ _______ _______ _____ _____    ______ ____
ROOT
ATOM      1  N   LIG    1        0.154  -2.724   1.125  0.00  0.00    -0.510 N 
ATOM      2  H   LIG    1        0.232  -3.422   0.400  0.00  0.00    +0.430 HD
ATOM      3  H   LIG    1       -0.632  -2.123   0.929  0.00  0.00    +0.420 HD
ENDROOT
BRANCH   1   4
ATOM      4  C   LIG    1       -0.046  -3.385   2.421  0.00  0.00    +0.160 C 
ATOM      5  C   LIG    1       -0.310  -2.330   3.497  0.00  0.00    +0.040 C 
ATOM      6  C   LIG    1       -0.518  -3.018   4.847  0.00  0.00    +0.040 C 
ATOM      7  C   LIG    1       -1.716  -3.966   4.757  0.00  0.00    +0.020 C 
ATOM      8  C   LIG    1       -1.451  -5.022   3.682  0.00  0.00    +0.000 C 
ATOM      9  C   LIG    1       -2.649  -5.970   3.592  0.00  0.00    +0.040 C 
ATOM     10  C   LIG    1       -1.243  -4.333   2.331  0.00  0.00    +0.040 C 
ENDBRANCH   1   4
BRANCH   1  11
ATOM     11  C   LIG    1        1.385  -1.923   1.168  0.00  0.00    +0.170 C 
BRANCH  11  12
ATOM     12  C   LIG    1        2.591  -2.850   1.327  0.00  0.00    +0.030 C 
ATOM     13  C   LIG    1        3.858  -2.012   1.513  0.00  0.00    +0.060 C 
ENDBRANCH  11  12
BRANCH  11  14
ATOM     14  C   LIG    1        1.521  -1.127  -0.132  0.00  0.00    +0.100 C 
BRANCH  14  16
ATOM     15  C   LIG    1        0.665   1.143  -0.401  0.00  0.00    +0.090 C 
ATOM     16  C   LIG    1        0.398  -0.127  -0.228  0.00  0.00    -0.110 C 
ENDBRANCH  14  16
ENDBRANCH  11  14
ENDBRANCH   1  11
TORSDOF 5
ENDMDL
MODEL      244
REMARK  Name = ZINC000308730023
REMARK                            x       y       z     vdW  Elec       q    Type
REMARK                         _______ _______ _______ _____ _____    ______ ____
ROOT
ATOM      1  N   LIG    1        2.805  -3.294   2.180  0.00  0.00    -0.510 N 
ATOM      2  H   LIG    1        2.695  -2.671   2.966  0.00  0.00    +0.430 HD
ATOM      3  H   LIG    1        2.899  -2.755   1.333  0.00  0.00    +0.430 HD
ENDROOT
BRANCH   1   4
ATOM      4  C   LIG    1        1.628  -4.167   2.079  0.00  0.00    +0.240 C 
BRANCH   4   5
ATOM      5  C   LIG    1        0.393  -3.322   1.759  0.00  0.00    +0.040 C 
BRANCH   5   6
ATOM      6  C   LIG    1       -0.833  -4.230   1.653  0.00  0.00    +0.070 C 
BRANCH   6   8
ATOM      7  C   LIG    1       -2.785  -3.683   0.293  0.00  0.00    +0.030 C 
ATOM      8  C   LIG    1       -2.049  -3.398   1.338  0.00  0.00    -0.070 C 
ENDBRANCH   6   8
ENDBRANCH   5   6
ENDBRANCH   4   5
ENDBRANCH   1   4
BRANCH   1   9
ATOM      9  C   LIG    1        4.008  -4.115   2.373  0.00  0.00    +0.170 C 
BRANCH   9  10
ATOM     10  C   LIG    1        3.817  -5.023   3.590  0.00  0.00    -0.010 C 
ATOM     11  C   LIG    1        3.581  -4.164   4.834  0.00  0.00    +0.040 C 
BRANCH  10  12
ATOM     12  C   LIG    1        5.069  -5.878   3.791  0.00  0.00    +0.030 C 
BRANCH  12  13
ATOM     13  C   LIG    1        4.831  -6.872   4.929  0.00  0.00    +0.000 C 
ATOM     14  C   LIG    1        6.084  -7.727   5.130  0.00  0.00    +0.020 C 
ENDBRANCH  12  13
ENDBRANCH  10  12
ENDBRANCH   9  10
BRANCH   9  15
ATOM     15  C   LIG    1        4.244  -4.974   1.129  0.00  0.00    +0.060 C 
ATOM     16  C   LIG    1        4.510  -4.067  -0.074  0.00  0.00    +0.020 C 
ENDBRANCH   9  15
ENDBRANCH   1   9
TORSDOF 9
ENDMDL
MODEL      245
REMARK  Name = ZINC000308729587
REMARK                            x       y       z     vdW  Elec       q    Type
REMARK                         _______ _______ _______ _____ _____    ______ ____
ROOT
ATOM      1  N   LIG    1       -2.652  -3.475  -2.409  0.00  0.00    -0.510 N 
ATOM      2  H   LIG    1       -1.837  -4.062  -2.309  0.00  0.00    +0.430 HD
ATOM      3  H   LIG    1       -2.657  -3.061  -3.329  0.00  0.00    +0.430 HD
ENDROOT
BRANCH   1   4
ATOM      4  C   LIG    1       -2.617  -2.413  -1.394  0.00  0.00    +0.250 C 
BRANCH   4   5
ATOM      5  C   LIG    1       -1.293  -1.653  -1.497  0.00  0.00    +0.040 C 
BRANCH   5   6
ATOM      6  C   LIG    1       -1.257  -0.547  -0.440  0.00  0.00    +0.070 C 
BRANCH   6   8
ATOM      7  C   LIG    1        0.044   1.503  -0.698  0.00  0.00    +0.030 C 
ATOM      8  C   LIG    1        0.046   0.202  -0.542  0.00  0.00    -0.070 C 
ENDBRANCH   6   8
ENDBRANCH   5   6
ENDBRANCH   4   5
ENDBRANCH   1   4
BRANCH   1   9
ATOM      9  C   LIG    1       -3.864  -4.285  -2.229  0.00  0.00    +0.170 C 
BRANCH   9  10
ATOM     10  C   LIG    1       -3.829  -5.475  -3.189  0.00  0.00    +0.070 C 
BRANCH  10  11
ATOM     11  C   LIG    1       -2.667  -6.398  -2.815  0.00  0.00    +0.050 C 
BRANCH  11  12
ATOM     12  C   LIG    1       -2.633  -7.571  -3.761  0.00  0.00    -0.050 C 
ATOM     13  C   LIG    1       -1.539  -7.842  -4.428  0.00  0.00    +0.040 C 
ENDBRANCH  11  12
ENDBRANCH  10  11
ENDBRANCH   9  10
BRANCH   9  14
ATOM     14  C   LIG    1       -5.098  -3.428  -2.523  0.00  0.00    +0.040 C 
BRANCH  14  15
ATOM     15  C   LIG    1       -6.362  -4.229  -2.203  0.00  0.00    +0.030 C 
ATOM     16  C   LIG    1       -7.590  -3.332  -2.374  0.00  0.00    +0.030 C 
ENDBRANCH  14  15
ENDBRANCH   9  14
ENDBRANCH   1   9
TORSDOF 10
ENDMDL
MODEL      246
REMARK  Name = ZINC000308730025
REMARK                            x       y       z     vdW  Elec       q    Type
REMARK                         _______ _______ _______ _____ _____    ______ ____
ROOT
ATOM      1  N   LIG    1        2.805  -3.309   2.227  0.00  0.00    -0.510 N 
ATOM      2  H   LIG    1        2.722  -2.728   1.407  0.00  0.00    +0.430 HD
ATOM      3  H   LIG    1        2.045  -3.972   2.249  0.00  0.00    +0.420 HD
ENDROOT
BRANCH   1   4
ATOM      4  C   LIG    1        2.756  -2.467   3.430  0.00  0.00    +0.250 C 
BRANCH   4   5
ATOM      5  C   LIG    1        1.484  -1.617   3.406  0.00  0.00    +0.040 C 
BRANCH   5   6
ATOM      6  C   LIG    1        1.433  -0.740   4.659  0.00  0.00    +0.070 C 
BRANCH   6   8
ATOM      7  C   LIG    1       -0.654   0.057   5.644  0.00  0.00    +0.030 C 
ATOM      8  C   LIG    1        0.180   0.097   4.635  0.00  0.00    -0.070 C 
ENDBRANCH   6   8
ENDBRANCH   5   6
ENDBRANCH   4   5
ENDBRANCH   1   4
BRANCH   1   9
ATOM      9  C   LIG    1        4.084  -4.031   2.187  0.00  0.00    +0.170 C 
BRANCH   9  10
ATOM     10  C   LIG    1        4.151  -5.015   3.357  0.00  0.00    -0.020 C 
ATOM     11  C   LIG    1        3.074  -6.088   3.184  0.00  0.00    +0.050 C 
BRANCH  10  12
ATOM     12  C   LIG    1        5.530  -5.677   3.389  0.00  0.00    +0.030 C 
BRANCH  12  13
ATOM     13  C   LIG    1        5.640  -6.566   4.630  0.00  0.00    +0.000 C 
ATOM     14  C   LIG    1        7.019  -7.228   4.661  0.00  0.00    +0.020 C 
ENDBRANCH  12  13
ENDBRANCH  10  12
ENDBRANCH   9  10
BRANCH   9  15
ATOM     15  C   LIG    1        4.195  -4.799   0.869  0.00  0.00    +0.050 C 
ATOM     16  C   LIG    1        4.262  -3.808  -0.295  0.00  0.00    +0.020 C 
ENDBRANCH   9  15
ENDBRANCH   1   9
TORSDOF 9
ENDMDL
MODEL      247
REMARK  Name = ZINC000308729662
REMARK                            x       y       z     vdW  Elec       q    Type
REMARK                         _______ _______ _______ _____ _____    ______ ____
ROOT
ATOM      1  N   LIG    1        0.154  -2.724   1.125  0.00  0.00    -0.510 N 
ATOM      2  H   LIG    1        0.232  -3.422   0.400  0.00  0.00    +0.420 HD
ATOM      3  H   LIG    1       -0.632  -2.123   0.929  0.00  0.00    +0.420 HD
ENDROOT
BRANCH   1   4
ATOM      4  C   LIG    1       -0.045  -3.385   2.421  0.00  0.00    +0.160 C 
ATOM      5  C   LIG    1       -0.310  -2.330   3.497  0.00  0.00    +0.040 C 
ATOM      6  C   LIG    1       -0.518  -3.019   4.847  0.00  0.00    +0.040 C 
ATOM      7  C   LIG    1       -1.716  -3.966   4.757  0.00  0.00    +0.020 C 
ATOM      8  C   LIG    1       -1.451  -5.022   3.682  0.00  0.00    +0.000 C 
ATOM      9  C   LIG    1       -0.197  -5.818   4.046  0.00  0.00    +0.030 C 
ATOM     10  C   LIG    1       -1.243  -4.333   2.331  0.00  0.00    +0.040 C 
ENDBRANCH   1   4
BRANCH   1  11
ATOM     11  C   LIG    1        1.385  -1.923   1.168  0.00  0.00    +0.170 C 
BRANCH  11  12
ATOM     12  C   LIG    1        2.591  -2.850   1.327  0.00  0.00    +0.030 C 
ATOM     13  C   LIG    1        3.858  -2.012   1.513  0.00  0.00    +0.060 C 
ENDBRANCH  11  12
BRANCH  11  14
ATOM     14  C   LIG    1        1.521  -1.127  -0.131  0.00  0.00    +0.100 C 
BRANCH  14  16
ATOM     15  C   LIG    1        0.665   1.143  -0.401  0.00  0.00    +0.090 C 
ATOM     16  C   LIG    1        0.398  -0.127  -0.228  0.00  0.00    -0.110 C 
ENDBRANCH  14  16
ENDBRANCH  11  14
ENDBRANCH   1  11
TORSDOF 5
ENDMDL
MODEL      248
REMARK  Name = ZINC000308729665
REMARK                            x       y       z     vdW  Elec       q    Type
REMARK                         _______ _______ _______ _____ _____    ______ ____
ROOT
ATOM      1  N   LIG    1        0.493  -2.543   0.687  0.00  0.00    -0.500 N 
ATOM      2  H   LIG    1        0.746  -2.899  -0.222  0.00  0.00    +0.420 HD
ATOM      3  H   LIG    1       -0.359  -2.007   0.614  0.00  0.00    +0.420 HD
ENDROOT
BRANCH   1   4
ATOM      4  C   LIG    1        0.288  -3.665   1.613  0.00  0.00    +0.160 C 
ATOM      5  C   LIG    1        1.564  -4.505   1.687  0.00  0.00    +0.040 C 
ATOM      6  C   LIG    1        1.351  -5.674   2.651  0.00  0.00    +0.040 C 
ATOM      7  C   LIG    1        0.197  -6.544   2.149  0.00  0.00    +0.020 C 
ATOM      8  C   LIG    1       -1.080  -5.704   2.075  0.00  0.00    +0.000 C 
ATOM      9  C   LIG    1       -2.234  -6.575   1.573  0.00  0.00    +0.040 C 
ATOM     10  C   LIG    1       -0.866  -4.536   1.111  0.00  0.00    +0.040 C 
ENDBRANCH   1   4
BRANCH   1  11
ATOM     11  C   LIG    1        1.571  -1.682   1.193  0.00  0.00    +0.160 C 
BRANCH  11  12
ATOM     12  C   LIG    1        1.925  -0.635   0.136  0.00  0.00    +0.050 C 
ATOM     13  C   LIG    1        2.580  -1.322  -1.064  0.00  0.00    +0.030 C 
ENDBRANCH  11  12
BRANCH  11  14
ATOM     14  C   LIG    1        1.105  -0.981   2.471  0.00  0.00    +0.090 C 
BRANCH  14  16
ATOM     15  C   LIG    1        2.258  -1.484   4.563  0.00  0.00    +0.080 C 
ATOM     16  C   LIG    1        1.389  -1.862   3.659  0.00  0.00    -0.100 C 
ENDBRANCH  14  16
ENDBRANCH  11  14
ENDBRANCH   1  11
TORSDOF 5
ENDMDL
MODEL      249
REMARK  Name = ZINC000308729663
REMARK                            x       y       z     vdW  Elec       q    Type
REMARK                         _______ _______ _______ _____ _____    ______ ____
ROOT
ATOM      1  N   LIG    1        0.493  -2.543   0.687  0.00  0.00    -0.500 N 
ATOM      2  H   LIG    1        0.746  -2.899  -0.223  0.00  0.00    +0.420 HD
ATOM      3  H   LIG    1       -0.359  -2.007   0.613  0.00  0.00    +0.420 HD
ENDROOT
BRANCH   1   4
ATOM      4  C   LIG    1        0.288  -3.666   1.612  0.00  0.00    +0.160 C 
ATOM      5  C   LIG    1        1.565  -4.505   1.686  0.00  0.00    +0.040 C 
ATOM      6  C   LIG    1        1.351  -5.675   2.650  0.00  0.00    +0.040 C 
ATOM      7  C   LIG    1        0.197  -6.545   2.147  0.00  0.00    +0.020 C 
ATOM      8  C   LIG    1       -1.080  -5.705   2.073  0.00  0.00    +0.000 C 
ATOM      9  C   LIG    1       -1.417  -5.164   3.464  0.00  0.00    +0.020 C 
ATOM     10  C   LIG    1       -0.866  -4.536   1.109  0.00  0.00    +0.040 C 
ENDBRANCH   1   4
BRANCH   1  11
ATOM     11  C   LIG    1        1.571  -1.683   1.193  0.00  0.00    +0.160 C 
BRANCH  11  12
ATOM     12  C   LIG    1        1.926  -0.635   0.136  0.00  0.00    +0.050 C 
ATOM     13  C   LIG    1        2.582  -1.322  -1.064  0.00  0.00    +0.030 C 
ENDBRANCH  11  12
BRANCH  11  14
ATOM     14  C   LIG    1        1.106  -0.981   2.470  0.00  0.00    +0.090 C 
BRANCH  14  16
ATOM     15  C   LIG    1        2.258  -1.485   4.563  0.00  0.00    +0.080 C 
ATOM     16  C   LIG    1        1.388  -1.863   3.659  0.00  0.00    -0.100 C 
ENDBRANCH  14  16
ENDBRANCH  11  14
ENDBRANCH   1  11
TORSDOF 5
ENDMDL
MODEL      250
REMARK  Name = ZINC000308730026
REMARK                            x       y       z     vdW  Elec       q    Type
REMARK                         _______ _______ _______ _____ _____    ______ ____
ROOT
ATOM      1  N   LIG    1        2.877  -3.720   2.025  0.00  0.00    -0.510 N 
ATOM      2  H   LIG    1        2.780  -2.925   1.411  0.00  0.00    +0.430 HD
ATOM      3  H   LIG    1        2.310  -4.481   1.682  0.00  0.00    +0.430 HD
ENDROOT
BRANCH   1   4
ATOM      4  C   LIG    1        2.435  -3.351   3.377  0.00  0.00    +0.240 C 
BRANCH   4   5
ATOM      5  C   LIG    1        0.971  -2.909   3.332  0.00  0.00    +0.040 C 
BRANCH   5   6
ATOM      6  C   LIG    1        0.511  -2.525   4.740  0.00  0.00    +0.070 C 
BRANCH   6   8
ATOM      7  C   LIG    1       -1.815  -2.671   5.470  0.00  0.00    +0.030 C 
ATOM      8  C   LIG    1       -0.932  -2.090   4.696  0.00  0.00    -0.070 C 
ENDBRANCH   6   8
ENDBRANCH   5   6
ENDBRANCH   4   5
ENDBRANCH   1   4
BRANCH   1   9
ATOM      9  C   LIG    1        4.284  -4.138   2.067  0.00  0.00    +0.170 C 
BRANCH   9  10
ATOM     10  C   LIG    1        4.441  -5.304   3.045  0.00  0.00    -0.010 C 
ATOM     11  C   LIG    1        3.575  -6.477   2.583  0.00  0.00    +0.040 C 
BRANCH  10  12
ATOM     12  C   LIG    1        5.907  -5.739   3.088  0.00  0.00    +0.040 C 
BRANCH  12  13
ATOM     13  C   LIG    1        6.087  -6.820   4.156  0.00  0.00    +0.000 C 
ATOM     14  C   LIG    1        7.553  -7.255   4.200  0.00  0.00    +0.020 C 
ENDBRANCH  12  13
ENDBRANCH  10  12
ENDBRANCH   9  10
BRANCH   9  15
ATOM     15  C   LIG    1        5.151  -2.965   2.530  0.00  0.00    +0.050 C 
ATOM     16  C   LIG    1        5.067  -1.833   1.504  0.00  0.00    +0.020 C 
ENDBRANCH   9  15
ENDBRANCH   1   9
TORSDOF 9
ENDMDL
MODEL      251
REMARK  Name = ZINC000308735396
REMARK                            x       y       z     vdW  Elec       q    Type
REMARK                         _______ _______ _______ _____ _____    ______ ____
ROOT
ATOM      1  N   LIG    1        2.623  -3.324  -0.004  0.00  0.00    -0.510 N 
ATOM      2  H   LIG    1        2.561  -2.740  -0.825  0.00  0.00    +0.430 HD
ATOM      3  H   LIG    1        1.792  -3.891   0.069  0.00  0.00    +0.430 HD
ENDROOT
BRANCH   1   4
ATOM      4  C   LIG    1        2.745  -2.478   1.191  0.00  0.00    +0.170 C 
BRANCH   4   5
ATOM      5  C   LIG    1        2.681  -3.353   2.444  0.00  0.00    +0.030 C 
ATOM      6  C   LIG    1        2.887  -2.483   3.685  0.00  0.00    +0.060 C 
ENDBRANCH   4   5
BRANCH   4   7
ATOM      7  C   LIG    1        1.599  -1.465   1.218  0.00  0.00    +0.070 C 
BRANCH   7   8
ATOM      8  C   LIG    1        1.735  -0.510   0.030  0.00  0.00    +0.040 C 
BRANCH   8  10
ATOM      9  C   LIG    1        0.866   1.772   0.047  0.00  0.00    +0.050 C 
ATOM     10  C   LIG    1        0.606   0.488   0.056  0.00  0.00    -0.070 C 
ENDBRANCH   8  10
ENDBRANCH   7   8
ENDBRANCH   4   7
ENDBRANCH   1   4
BRANCH   1  11
ATOM     11  C   LIG    1        3.802  -4.194  -0.110  0.00  0.00    +0.250 C 
BRANCH  11  12
ATOM     12  C   LIG    1        3.634  -5.136  -1.304  0.00  0.00    +0.070 C 
BRANCH  12  13
ATOM     13  C   LIG    1        4.843  -6.029  -1.413  0.00  0.00    -0.080 C 
ATOM     14  C   LIG    1        4.697  -7.331  -1.431  0.00  0.00    -0.080 C 
ATOM     15  C   LIG    1        5.906  -8.224  -1.540  0.00  0.00    +0.090 C 
ATOM     16  C   LIG    1        3.320  -7.936  -1.343  0.00  0.00    +0.080 C 
ENDBRANCH  12  13
ENDBRANCH  11  12
ENDBRANCH   1  11
TORSDOF 8
ENDMDL
MODEL      252
REMARK  Name = ZINC000308735397
REMARK                            x       y       z     vdW  Elec       q    Type
REMARK                         _______ _______ _______ _____ _____    ______ ____
ROOT
ATOM      1  N   LIG    1        3.951  -1.506   1.218  0.00  0.00    -0.510 N 
ATOM      2  H   LIG    1        4.082  -1.213   2.175  0.00  0.00    +0.430 HD
ATOM      3  H   LIG    1        3.815  -0.696   0.634  0.00  0.00    +0.420 HD
ENDROOT
BRANCH   1   4
ATOM      4  C   LIG    1        2.772  -2.378   1.130  0.00  0.00    +0.170 C 
BRANCH   4   5
ATOM      5  C   LIG    1        2.916  -3.532   2.124  0.00  0.00    +0.030 C 
ATOM      6  C   LIG    1        1.762  -4.518   1.931  0.00  0.00    +0.060 C 
ENDBRANCH   4   5
BRANCH   4   7
ATOM      7  C   LIG    1        1.516  -1.571   1.463  0.00  0.00    +0.070 C 
BRANCH   7   8
ATOM      8  C   LIG    1        1.304  -0.494   0.398  0.00  0.00    +0.050 C 
BRANCH   8  10
ATOM      9  C   LIG    1        0.135   1.604   0.835  0.00  0.00    +0.040 C 
ATOM     10  C   LIG    1        0.066   0.301   0.726  0.00  0.00    -0.050 C 
ENDBRANCH   8  10
ENDBRANCH   7   8
ENDBRANCH   4   7
ENDBRANCH   1   4
BRANCH   1  11
ATOM     11  C   LIG    1        5.139  -2.243   0.765  0.00  0.00    +0.250 C 
BRANCH  11  12
ATOM     12  C   LIG    1        6.342  -1.298   0.731  0.00  0.00    +0.070 C 
BRANCH  12  13
ATOM     13  C   LIG    1        7.561  -2.053   0.266  0.00  0.00    -0.080 C 
ATOM     14  C   LIG    1        8.248  -1.619  -0.761  0.00  0.00    -0.080 C 
ATOM     15  C   LIG    1        9.467  -2.374  -1.226  0.00  0.00    +0.090 C 
ATOM     16  C   LIG    1        7.821  -0.364  -1.478  0.00  0.00    +0.080 C 
ENDBRANCH  12  13
ENDBRANCH  11  12
ENDBRANCH   1  11
TORSDOF 8
ENDMDL
MODEL      253
REMARK  Name = ZINC000308743840
REMARK                            x       y       z     vdW  Elec       q    Type
REMARK                         _______ _______ _______ _____ _____    ______ ____
ROOT
ATOM      1  N   LIG    1        1.480  -0.841   2.404  0.00  0.00    -0.510 N 
ATOM      2  H   LIG    1        0.718  -0.180   2.430  0.00  0.00    +0.430 HD
ATOM      3  H   LIG    1        2.353  -0.345   2.309  0.00  0.00    +0.420 HD
ENDROOT
BRANCH   1   4
ATOM      4  C   LIG    1        1.493  -1.622   3.648  0.00  0.00    +0.160 C 
ATOM      5  C   LIG    1        0.122  -2.269   3.858  0.00  0.00    +0.090 C 
BRANCH   4   6
ATOM      6  C   LIG    1        1.807  -0.699   4.827  0.00  0.00    +0.060 C 
BRANCH   6   7
ATOM      7  C   LIG    1        3.228  -0.149   4.679  0.00  0.00    +0.040 C 
BRANCH   7   8
ATOM      8  C   LIG    1        3.542   0.774   5.857  0.00  0.00    -0.060 C 
ATOM      9  C   LIG    1        4.669   0.354   6.803  0.00  0.00    +0.030 C 
ATOM     10  C   LIG    1        4.878   1.519   5.834  0.00  0.00    +0.020 C 
ENDBRANCH   7   8
ENDBRANCH   6   7
ENDBRANCH   4   6
ENDBRANCH   1   4
BRANCH   1  11
ATOM     11  C   LIG    1        1.304  -1.746   1.260  0.00  0.00    +0.160 C 
BRANCH  11  12
ATOM     12  C   LIG    1        2.534  -2.647   1.129  0.00  0.00    +0.030 C 
ATOM     13  C   LIG    1        2.308  -3.658   0.003  0.00  0.00    +0.060 C 
ENDBRANCH  11  12
BRANCH  11  14
ATOM     14  C   LIG    1        1.137  -0.923  -0.020  0.00  0.00    +0.090 C 
BRANCH  14  16
ATOM     15  C   LIG    1       -0.113   1.173  -0.105  0.00  0.00    +0.060 C 
ATOM     16  C   LIG    1       -0.140  -0.127   0.058  0.00  0.00    -0.090 C 
ENDBRANCH  14  16
ENDBRANCH  11  14
ENDBRANCH   1  11
TORSDOF 8
ENDMDL
MODEL      254
REMARK  Name = ZINC000308739520
REMARK                            x       y       z     vdW  Elec       q    Type
REMARK                         _______ _______ _______ _____ _____    ______ ____
ROOT
ATOM      1  C   LIG    1        4.093  -4.188   2.304  0.00  0.00    +0.160 C 
ATOM      2  C   LIG    1        4.197  -5.073   3.547  0.00  0.00    +0.090 C 
ENDROOT
BRANCH   1   3
ATOM      3  N   LIG    1        4.170  -5.025   1.099  0.00  0.00    -0.510 N 
ATOM      4  H   LIG    1        4.019  -4.453   0.282  0.00  0.00    +0.420 HD
ATOM      5  H   LIG    1        3.463  -5.744   1.142  0.00  0.00    +0.420 HD
BRANCH   3   6
ATOM      6  C   LIG    1        5.498  -5.649   1.021  0.00  0.00    +0.160 C 
ATOM      7  C   LIG    1        6.561  -4.565   0.830  0.00  0.00    +0.090 C 
BRANCH   6   8
ATOM      8  C   LIG    1        5.538  -6.617  -0.163  0.00  0.00    +0.050 C 
BRANCH   8   9
ATOM      9  C   LIG    1        4.563  -7.769   0.087  0.00  0.00    -0.000 C 
ATOM     10  C   LIG    1        4.603  -8.737  -1.098  0.00  0.00    +0.030 C 
ENDBRANCH   8   9
ENDBRANCH   6   8
ENDBRANCH   3   6
ENDBRANCH   1   3
BRANCH   1  11
ATOM     11  C   LIG    1        2.757  -3.441   2.321  0.00  0.00    +0.050 C 
BRANCH  11  12
ATOM     12  C   LIG    1        2.705  -2.464   1.145  0.00  0.00    -0.000 C 
BRANCH  12  13
ATOM     13  C   LIG    1        1.370  -1.717   1.161  0.00  0.00    +0.020 C 
BRANCH  13  14
ATOM     14  C   LIG    1        1.317  -0.740  -0.015  0.00  0.00    +0.050 C 
BRANCH  14  16
ATOM     15  C   LIG    1       -0.016   1.306   0.009  0.00  0.00    +0.020 C 
ATOM     16  C   LIG    1        0.002  -0.004   0.002  0.00  0.00    -0.060 C 
ENDBRANCH  14  16
ENDBRANCH  13  14
ENDBRANCH  12  13
ENDBRANCH  11  12
ENDBRANCH   1  11
TORSDOF 9
ENDMDL
MODEL      255
REMARK  Name = ZINC000308740946
REMARK                            x       y       z     vdW  Elec       q    Type
REMARK                         _______ _______ _______ _____ _____    ______ ____
ROOT
ATOM      1  C   LIG    1        2.869  -2.515   1.260  0.00  0.00    +0.160 C 
ENDROOT
BRANCH   1   2
ATOM      2  N   LIG    1        4.046  -1.644   1.146  0.00  0.00    -0.510 N 
ATOM      3  H   LIG    1        4.134  -1.085   1.981  0.00  0.00    +0.430 HD
ATOM      4  H   LIG    1        3.940  -1.038   0.346  0.00  0.00    +0.430 HD
BRANCH   2   5
ATOM      5  C   LIG    1        5.251  -2.469   0.979  0.00  0.00    +0.290 C 
BRANCH   5   6
ATOM      6  C   LIG    1        6.489  -1.569   0.980  0.00  0.00    -0.190 C 
ATOM      7  C   LIG    1        7.438  -1.674   2.175  0.00  0.00    +0.060 C 
ATOM      8  C   LIG    1        6.302  -0.190   0.344  0.00  0.00    +0.090 C 
ATOM      9  C   LIG    1        7.852  -2.244   0.817  0.00  0.00    +0.080 C 
ENDBRANCH   5   6
ENDBRANCH   2   5
ENDBRANCH   1   2
BRANCH   1  10
ATOM     10  C   LIG    1        1.602  -1.658   1.292  0.00  0.00    +0.070 C 
BRANCH  10  11
ATOM     11  C   LIG    1        1.442  -0.934  -0.047  0.00  0.00    +0.050 C 
BRANCH  11  13
ATOM     12  C   LIG    1        0.263   1.191  -0.282  0.00  0.00    +0.040 C 
ATOM     13  C   LIG    1        0.194  -0.090  -0.016  0.00  0.00    -0.050 C 
ENDBRANCH  11  13
ENDBRANCH  10  11
ENDBRANCH   1  10
BRANCH   1  14
ATOM     14  C   LIG    1        2.963  -3.334   2.549  0.00  0.00    +0.040 C 
BRANCH  14  15
ATOM     15  C   LIG    1        1.792  -4.316   2.616  0.00  0.00    +0.030 C 
ATOM     16  C   LIG    1        1.956  -5.223   3.837  0.00  0.00    +0.030 C 
ENDBRANCH  14  15
ENDBRANCH   1  14
TORSDOF 8
ENDMDL
MODEL      256
REMARK  Name = ZINC000308739521
REMARK                            x       y       z     vdW  Elec       q    Type
REMARK                         _______ _______ _______ _____ _____    ______ ____
ROOT
ATOM      1  C   LIG    1        4.010  -3.938   2.624  0.00  0.00    +0.150 C 
ATOM      2  C   LIG    1        4.149  -4.734   3.923  0.00  0.00    +0.090 C 
ENDROOT
BRANCH   1   3
ATOM      3  N   LIG    1        5.139  -3.007   2.498  0.00  0.00    -0.510 N 
ATOM      4  H   LIG    1        5.207  -2.445   3.333  0.00  0.00    +0.420 HD
ATOM      5  H   LIG    1        4.992  -2.406   1.700  0.00  0.00    +0.420 HD
BRANCH   3   6
ATOM      6  C   LIG    1        6.383  -3.767   2.316  0.00  0.00    +0.160 C 
ATOM      7  C   LIG    1        7.560  -2.957   2.861  0.00  0.00    +0.090 C 
BRANCH   6   8
ATOM      8  C   LIG    1        6.599  -4.041   0.826  0.00  0.00    +0.050 C 
BRANCH   8   9
ATOM      9  C   LIG    1        5.500  -4.974   0.314  0.00  0.00    +0.000 C 
ATOM     10  C   LIG    1        5.762  -5.313  -1.155  0.00  0.00    +0.030 C 
ENDBRANCH   8   9
ENDBRANCH   6   8
ENDBRANCH   3   6
ENDBRANCH   1   3
BRANCH   1  11
ATOM     11  C   LIG    1        2.699  -3.150   2.647  0.00  0.00    +0.050 C 
BRANCH  11  12
ATOM     12  C   LIG    1        2.499  -2.452   1.300  0.00  0.00    -0.000 C 
BRANCH  12  13
ATOM     13  C   LIG    1        1.188  -1.664   1.323  0.00  0.00    +0.020 C 
BRANCH  13  14
ATOM     14  C   LIG    1        0.989  -0.967  -0.024  0.00  0.00    +0.050 C 
BRANCH  14  16
ATOM     15  C   LIG    1       -0.303   1.089  -0.284  0.00  0.00    +0.020 C 
ATOM     16  C   LIG    1       -0.303  -0.190  -0.001  0.00  0.00    -0.060 C 
ENDBRANCH  14  16
ENDBRANCH  13  14
ENDBRANCH  12  13
ENDBRANCH  11  12
ENDBRANCH   1  11
TORSDOF 9
ENDMDL
MODEL      257
REMARK  Name = ZINC000308743842
REMARK                            x       y       z     vdW  Elec       q    Type
REMARK                         _______ _______ _______ _____ _____    ______ ____
ROOT
ATOM      1  N   LIG    1        0.316  -2.713   0.643  0.00  0.00    -0.510 N 
ATOM      2  H   LIG    1        0.513  -3.128  -0.256  0.00  0.00    +0.420 HD
ATOM      3  H   LIG    1       -0.551  -2.200   0.594  0.00  0.00    +0.420 HD
ENDROOT
BRANCH   1   4
ATOM      4  C   LIG    1        0.203  -3.772   1.655  0.00  0.00    +0.160 C 
ATOM      5  C   LIG    1        1.514  -4.556   1.722  0.00  0.00    +0.100 C 
BRANCH   4   6
ATOM      6  C   LIG    1       -0.939  -4.718   1.278  0.00  0.00    +0.060 C 
BRANCH   6   7
ATOM      7  C   LIG    1       -2.268  -3.962   1.332  0.00  0.00    +0.040 C 
BRANCH   7   8
ATOM      8  C   LIG    1       -3.409  -4.909   0.954  0.00  0.00    -0.060 C 
ATOM      9  C   LIG    1       -4.461  -5.208   2.023  0.00  0.00    +0.030 C 
ATOM     10  C   LIG    1       -4.812  -4.311   0.835  0.00  0.00    +0.020 C 
ENDBRANCH   7   8
ENDBRANCH   6   7
ENDBRANCH   4   6
ENDBRANCH   1   4
BRANCH   1  11
ATOM     11  C   LIG    1        1.406  -1.800   1.010  0.00  0.00    +0.160 C 
BRANCH  11  12
ATOM     12  C   LIG    1        1.663  -0.824  -0.140  0.00  0.00    +0.050 C 
ATOM     13  C   LIG    1        2.247  -1.584  -1.333  0.00  0.00    +0.030 C 
ENDBRANCH  11  12
BRANCH  11  14
ATOM     14  C   LIG    1        1.014  -1.017   2.265  0.00  0.00    +0.090 C 
BRANCH  14  16
ATOM     15  C   LIG    1        2.305  -1.364   4.308  0.00  0.00    +0.080 C 
ATOM     16  C   LIG    1        1.385  -1.812   3.490  0.00  0.00    -0.100 C 
ENDBRANCH  14  16
ENDBRANCH  11  14
ENDBRANCH   1  11
TORSDOF 8
ENDMDL
MODEL      258
REMARK  Name = ZINC000308743841
REMARK                            x       y       z     vdW  Elec       q    Type
REMARK                         _______ _______ _______ _____ _____    ______ ____
ROOT
ATOM      1  N   LIG    1        1.383  -0.997   2.579  0.00  0.00    -0.500 N 
ATOM      2  H   LIG    1        0.575  -0.392   2.594  0.00  0.00    +0.420 HD
ATOM      3  H   LIG    1        2.213  -0.455   2.769  0.00  0.00    +0.420 HD
ENDROOT
BRANCH   1   4
ATOM      4  C   LIG    1        1.234  -2.039   3.603  0.00  0.00    +0.150 C 
ATOM      5  C   LIG    1        2.480  -2.928   3.612  0.00  0.00    +0.090 C 
BRANCH   4   6
ATOM      6  C   LIG    1        1.065  -1.385   4.976  0.00  0.00    +0.060 C 
BRANCH   6   7
ATOM      7  C   LIG    1       -0.246  -0.597   5.007  0.00  0.00    +0.040 C 
BRANCH   7   8
ATOM      8  C   LIG    1       -0.416   0.058   6.379  0.00  0.00    -0.050 C 
ATOM      9  C   LIG    1       -0.433   1.587   6.436  0.00  0.00    +0.010 C 
ATOM     10  C   LIG    1       -1.726   0.798   6.652  0.00  0.00    +0.020 C 
ENDBRANCH   7   8
ENDBRANCH   6   7
ENDBRANCH   4   6
ENDBRANCH   1   4
BRANCH   1  11
ATOM     11  C   LIG    1        1.500  -1.624   1.256  0.00  0.00    +0.170 C 
BRANCH  11  12
ATOM     12  C   LIG    1        1.946  -0.577   0.233  0.00  0.00    +0.050 C 
ATOM     13  C   LIG    1        3.336  -0.059   0.605  0.00  0.00    +0.040 C 
ENDBRANCH  11  12
BRANCH  11  14
ATOM     14  C   LIG    1        0.144  -2.197   0.841  0.00  0.00    +0.100 C 
BRANCH  14  16
ATOM     15  C   LIG    1       -1.345  -3.411   2.348  0.00  0.00    +0.060 C 
ATOM     16  C   LIG    1       -0.195  -3.373   1.722  0.00  0.00    -0.060 C 
ENDBRANCH  14  16
ENDBRANCH  11  14
ENDBRANCH   1  11
TORSDOF 8
ENDMDL
MODEL      259
REMARK  Name = ZINC000308740943
REMARK                            x       y       z     vdW  Elec       q    Type
REMARK                         _______ _______ _______ _____ _____    ______ ____
ROOT
ATOM      1  C   LIG    1        2.896  -2.282   1.029  0.00  0.00    +0.160 C 
ENDROOT
BRANCH   1   2
ATOM      2  N   LIG    1        2.631  -3.303   0.007  0.00  0.00    -0.510 N 
ATOM      3  H   LIG    1        2.486  -2.856  -0.886  0.00  0.00    +0.430 HD
ATOM      4  H   LIG    1        1.806  -3.826   0.259  0.00  0.00    +0.430 HD
BRANCH   2   5
ATOM      5  C   LIG    1        3.779  -4.215  -0.084  0.00  0.00    +0.300 C 
BRANCH   5   6
ATOM      6  C   LIG    1        3.564  -5.193  -1.241  0.00  0.00    -0.190 C 
ATOM      7  C   LIG    1        4.476  -5.054  -2.462  0.00  0.00    +0.060 C 
ATOM      8  C   LIG    1        2.115  -5.617  -1.486  0.00  0.00    +0.090 C 
ATOM      9  C   LIG    1        4.657  -6.231  -1.501  0.00  0.00    +0.080 C 
ENDBRANCH   5   6
ENDBRANCH   2   5
ENDBRANCH   1   2
BRANCH   1  10
ATOM     10  C   LIG    1        1.772  -1.244   1.016  0.00  0.00    +0.070 C 
BRANCH  10  11
ATOM     11  C   LIG    1        1.786  -0.494  -0.318  0.00  0.00    +0.040 C 
BRANCH  11  13
ATOM     12  C   LIG    1        0.953   1.786  -0.575  0.00  0.00    +0.050 C 
ATOM     13  C   LIG    1        0.680   0.529  -0.330  0.00  0.00    -0.070 C 
ENDBRANCH  11  13
ENDBRANCH  10  11
ENDBRANCH   1  10
BRANCH   1  14
ATOM     14  C   LIG    1        2.961  -2.945   2.407  0.00  0.00    +0.040 C 
BRANCH  14  15
ATOM     15  C   LIG    1        3.319  -1.896   3.461  0.00  0.00    +0.030 C 
ATOM     16  C   LIG    1        3.512  -2.580   4.816  0.00  0.00    +0.030 C 
ENDBRANCH  14  15
ENDBRANCH   1  14
TORSDOF 8
ENDMDL
MODEL      260
REMARK  Name = ZINC000308739523
REMARK                            x       y       z     vdW  Elec       q    Type
REMARK                         _______ _______ _______ _____ _____    ______ ____
ROOT
ATOM      1  C   LIG    1        4.093  -4.188   2.304  0.00  0.00    +0.160 C 
ATOM      2  C   LIG    1        4.096  -5.252   3.403  0.00  0.00    +0.090 C 
ENDROOT
BRANCH   1   3
ATOM      3  N   LIG    1        5.188  -3.238   2.539  0.00  0.00    -0.510 N 
ATOM      4  H   LIG    1        5.108  -2.856   3.469  0.00  0.00    +0.420 HD
ATOM      5  H   LIG    1        5.136  -2.491   1.863  0.00  0.00    +0.420 HD
BRANCH   3   6
ATOM      6  C   LIG    1        6.476  -3.933   2.404  0.00  0.00    +0.160 C 
ATOM      7  C   LIG    1        6.652  -4.404   0.960  0.00  0.00    +0.090 C 
BRANCH   6   8
ATOM      8  C   LIG    1        7.612  -2.975   2.771  0.00  0.00    +0.050 C 
BRANCH   8   9
ATOM      9  C   LIG    1        7.506  -2.602   4.251  0.00  0.00    -0.000 C 
ATOM     10  C   LIG    1        8.642  -1.645   4.617  0.00  0.00    +0.030 C 
ENDBRANCH   8   9
ENDBRANCH   6   8
ENDBRANCH   3   6
ENDBRANCH   1   3
BRANCH   1  11
ATOM     11  C   LIG    1        2.757  -3.441   2.321  0.00  0.00    +0.050 C 
BRANCH  11  12
ATOM     12  C   LIG    1        2.705  -2.464   1.145  0.00  0.00    -0.000 C 
BRANCH  12  13
ATOM     13  C   LIG    1        1.370  -1.717   1.161  0.00  0.00    +0.020 C 
BRANCH  13  14
ATOM     14  C   LIG    1        1.317  -0.740  -0.015  0.00  0.00    +0.050 C 
BRANCH  14  16
ATOM     15  C   LIG    1       -0.016   1.306   0.009  0.00  0.00    +0.020 C 
ATOM     16  C   LIG    1        0.002  -0.004   0.002  0.00  0.00    -0.060 C 
ENDBRANCH  14  16
ENDBRANCH  13  14
ENDBRANCH  12  13
ENDBRANCH  11  12
ENDBRANCH   1  11
TORSDOF 9
ENDMDL
MODEL      261
REMARK  Name = ZINC000308739522
REMARK                            x       y       z     vdW  Elec       q    Type
REMARK                         _______ _______ _______ _____ _____    ______ ____
ROOT
ATOM      1  C   LIG    1        4.005  -4.019   1.625  0.00  0.00    +0.160 C 
ATOM      2  C   LIG    1        3.720  -4.496   3.050  0.00  0.00    +0.080 C 
ENDROOT
BRANCH   1   3
ATOM      3  N   LIG    1        4.322  -5.175   0.775  0.00  0.00    -0.500 N 
ATOM      4  H   LIG    1        4.473  -4.864  -0.173  0.00  0.00    +0.420 HD
ATOM      5  H   LIG    1        3.553  -5.828   0.796  0.00  0.00    +0.420 HD
BRANCH   3   6
ATOM      6  C   LIG    1        5.537  -5.832   1.275  0.00  0.00    +0.160 C 
ATOM      7  C   LIG    1        5.797  -7.105   0.467  0.00  0.00    +0.090 C 
BRANCH   6   8
ATOM      8  C   LIG    1        6.727  -4.882   1.128  0.00  0.00    +0.050 C 
BRANCH   8   9
ATOM      9  C   LIG    1        6.847  -4.016   2.384  0.00  0.00    +0.000 C 
ATOM     10  C   LIG    1        7.941  -2.967   2.177  0.00  0.00    +0.030 C 
ENDBRANCH   8   9
ENDBRANCH   6   8
ENDBRANCH   3   6
ENDBRANCH   1   3
BRANCH   1  11
ATOM     11  C   LIG    1        2.773  -3.301   1.071  0.00  0.00    +0.050 C 
BRANCH  11  12
ATOM     12  C   LIG    1        3.099  -2.715  -0.304  0.00  0.00    -0.000 C 
BRANCH  12  13
ATOM     13  C   LIG    1        1.866  -1.997  -0.858  0.00  0.00    +0.020 C 
BRANCH  13  14
ATOM     14  C   LIG    1        2.192  -1.411  -2.233  0.00  0.00    +0.050 C 
BRANCH  14  16
ATOM     15  C   LIG    1        1.062   0.549  -3.150  0.00  0.00    +0.020 C 
ATOM     16  C   LIG    1        0.978  -0.704  -2.778  0.00  0.00    -0.060 C 
ENDBRANCH  14  16
ENDBRANCH  13  14
ENDBRANCH  12  13
ENDBRANCH  11  12
ENDBRANCH   1  11
TORSDOF 9
ENDMDL
MODEL      262
REMARK  Name = ZINC000308743838
REMARK                            x       y       z     vdW  Elec       q    Type
REMARK                         _______ _______ _______ _____ _____    ______ ____
ROOT
ATOM      1  N   LIG    1        0.180  -2.733   1.131  0.00  0.00    -0.510 N 
ATOM      2  H   LIG    1        0.265  -3.423   0.400  0.00  0.00    +0.420 HD
ATOM      3  H   LIG    1       -0.618  -2.143   0.946  0.00  0.00    +0.420 HD
ENDROOT
BRANCH   1   4
ATOM      4  C   LIG    1        0.001  -3.409   2.423  0.00  0.00    +0.160 C 
ATOM      5  C   LIG    1       -0.271  -2.367   3.510  0.00  0.00    +0.090 C 
BRANCH   4   6
ATOM      6  C   LIG    1       -1.182  -4.375   2.334  0.00  0.00    +0.060 C 
BRANCH   6   7
ATOM      7  C   LIG    1       -0.857  -5.488   1.337  0.00  0.00    +0.040 C 
BRANCH   7   8
ATOM      8  C   LIG    1       -2.040  -6.454   1.248  0.00  0.00    -0.050 C 
ATOM      9  C   LIG    1       -2.762  -6.565  -0.097  0.00  0.00    +0.010 C 
ATOM     10  C   LIG    1       -1.866  -7.707   0.387  0.00  0.00    +0.030 C 
ENDBRANCH   7   8
ENDBRANCH   6   7
ENDBRANCH   4   6
ENDBRANCH   1   4
BRANCH   1  11
ATOM     11  C   LIG    1        1.397  -1.911   1.172  0.00  0.00    +0.170 C 
BRANCH  11  12
ATOM     12  C   LIG    1        2.621  -2.819   1.313  0.00  0.00    +0.030 C 
ATOM     13  C   LIG    1        3.874  -1.960   1.498  0.00  0.00    +0.060 C 
ENDBRANCH  11  12
BRANCH  11  14
ATOM     14  C   LIG    1        1.509  -1.101  -0.121  0.00  0.00    +0.100 C 
BRANCH  14  16
ATOM     15  C   LIG    1        0.612   1.157  -0.362  0.00  0.00    +0.090 C 
ATOM     16  C   LIG    1        0.368  -0.119  -0.199  0.00  0.00    -0.110 C 
ENDBRANCH  14  16
ENDBRANCH  11  14
ENDBRANCH   1  11
TORSDOF 8
ENDMDL
MODEL      263
REMARK  Name = ZINC000308749721
REMARK                            x       y       z     vdW  Elec       q    Type
REMARK                         _______ _______ _______ _____ _____    ______ ____
ROOT
ATOM      1  C   LIG    1        2.981  -1.809   1.344  0.00  0.00    +0.160 C 
ATOM      2  C   LIG    1        2.811  -3.177   0.661  0.00  0.00    +0.040 C 
ATOM      3  C   LIG    1        3.179  -4.243   1.714  0.00  0.00    +0.040 C 
ATOM      4  C   LIG    1        4.099  -3.493   2.708  0.00  0.00    +0.050 C 
ATOM      5  C   LIG    1        3.447  -2.090   2.787  0.00  0.00    -0.010 C 
ENDROOT
BRANCH   1   6
ATOM      6  N   LIG    1        1.699  -1.091   1.360  0.00  0.00    -0.500 N 
ATOM      7  H   LIG    1        0.988  -1.682   1.765  0.00  0.00    +0.430 HD
ATOM      8  H   LIG    1        1.791  -0.250   1.909  0.00  0.00    +0.430 HD
BRANCH   6   9
ATOM      9  C   LIG    1        1.317  -0.740  -0.015  0.00  0.00    +0.300 C 
BRANCH   9  11
ATOM     10  C   LIG    1       -0.016   1.306   0.009  0.00  0.00    +0.120 C 
ATOM     11  C   LIG    1        0.002  -0.004   0.002  0.00  0.00    -0.200 C 
ATOM     12  C   LIG    1       -1.293  -0.775   0.010  0.00  0.00    +0.100 C 
ENDBRANCH   9  11
ENDBRANCH   6   9
ENDBRANCH   1   6
BRANCH   5  13
ATOM     13  C   LIG    1        4.473  -1.047   3.236  0.00  0.00    +0.020 C 
BRANCH  13  14
ATOM     14  C   LIG    1        4.892  -1.332   4.679  0.00  0.00    +0.010 C 
BRANCH  14  15
ATOM     15  C   LIG    1        5.918  -0.289   5.128  0.00  0.00    -0.010 C 
ATOM     16  C   LIG    1        6.338  -0.574   6.571  0.00  0.00    +0.010 C 
ENDBRANCH  14  15
ENDBRANCH  13  14
ENDBRANCH   5  13
TORSDOF 6
ENDMDL
MODEL      264
REMARK  Name = ZINC000308746920
REMARK                            x       y       z     vdW  Elec       q    Type
REMARK                         _______ _______ _______ _____ _____    ______ ____
ROOT
ATOM      1  N   LIG    1        1.440  -0.813   2.363  0.00  0.00    -0.500 N 
ATOM      2  H   LIG    1        0.634  -0.205   2.371  0.00  0.00    +0.430 HD
ATOM      3  H   LIG    1        2.279  -0.259   2.275  0.00  0.00    +0.420 HD
ENDROOT
BRANCH   1   4
ATOM      4  C   LIG    1        1.487  -1.579   3.615  0.00  0.00    +0.160 C 
ATOM      5  C   LIG    1        0.112  -2.225   3.916  0.00  0.00    +0.040 C 
ATOM      6  C   LIG    1        0.120  -2.439   5.444  0.00  0.00    +0.050 C 
ATOM      7  C   LIG    1        1.126  -1.429   6.023  0.00  0.00    -0.060 C 
ATOM      8  C   LIG    1        2.253  -2.168   6.747  0.00  0.00    +0.040 C 
ATOM      9  C   LIG    1        0.417  -0.479   6.991  0.00  0.00    +0.040 C 
ATOM     10  C   LIG    1        1.699  -0.637   4.827  0.00  0.00    +0.060 C 
ENDBRANCH   1   4
BRANCH   1  11
ATOM     11  C   LIG    1        1.343  -1.738   1.226  0.00  0.00    +0.170 C 
BRANCH  11  12
ATOM     12  C   LIG    1        2.634  -2.553   1.120  0.00  0.00    +0.040 C 
ATOM     13  C   LIG    1        2.503  -3.570  -0.015  0.00  0.00    +0.060 C 
ENDBRANCH  11  12
BRANCH  11  14
ATOM     14  C   LIG    1        1.135  -0.942  -0.064  0.00  0.00    +0.090 C 
BRANCH  14  16
ATOM     15  C   LIG    1       -0.257   1.060  -0.186  0.00  0.00    +0.060 C 
ATOM     16  C   LIG    1       -0.195  -0.236  -0.010  0.00  0.00    -0.090 C 
ENDBRANCH  14  16
ENDBRANCH  11  14
ENDBRANCH   1  11
TORSDOF 5
ENDMDL
MODEL      265
REMARK  Name = ZINC000308749728
REMARK                            x       y       z     vdW  Elec       q    Type
REMARK                         _______ _______ _______ _____ _____    ______ ____
ROOT
ATOM      1  C   LIG    1        2.981  -1.809   1.344  0.00  0.00    +0.160 C 
ATOM      2  C   LIG    1        2.810  -3.181   0.659  0.00  0.00    +0.050 C 
ATOM      3  C   LIG    1        3.729  -4.127   1.471  0.00  0.00    +0.050 C 
ATOM      4  C   LIG    1        3.541  -3.623   2.924  0.00  0.00    +0.050 C 
ATOM      5  C   LIG    1        3.446  -2.089   2.783  0.00  0.00    +0.000 C 
ENDROOT
BRANCH   1   6
ATOM      6  N   LIG    1        1.699  -1.091   1.360  0.00  0.00    -0.510 N 
ATOM      7  H   LIG    1        0.988  -1.682   1.765  0.00  0.00    +0.430 HD
ATOM      8  H   LIG    1        1.791  -0.250   1.909  0.00  0.00    +0.430 HD
BRANCH   6   9
ATOM      9  C   LIG    1        1.317  -0.740  -0.015  0.00  0.00    +0.300 C 
BRANCH   9  11
ATOM     10  C   LIG    1       -0.016   1.306   0.009  0.00  0.00    +0.120 C 
ATOM     11  C   LIG    1        0.002  -0.004   0.002  0.00  0.00    -0.200 C 
ATOM     12  C   LIG    1       -1.293  -0.775   0.010  0.00  0.00    +0.100 C 
ENDBRANCH   9  11
ENDBRANCH   6   9
ENDBRANCH   1   6
BRANCH   5  13
ATOM     13  C   LIG    1        2.428  -1.533   3.782  0.00  0.00    -0.010 C 
BRANCH  13  14
ATOM     14  C   LIG    1        2.946  -1.740   5.206  0.00  0.00    +0.020 C 
BRANCH  14  15
ATOM     15  C   LIG    1        1.929  -1.184   6.205  0.00  0.00    -0.010 C 
ATOM     16  C   LIG    1        2.447  -1.390   7.629  0.00  0.00    +0.020 C 
ENDBRANCH  14  15
ENDBRANCH  13  14
ENDBRANCH   5  13
TORSDOF 6
ENDMDL
MODEL      266
REMARK  Name = ZINC000308746915
REMARK                            x       y       z     vdW  Elec       q    Type
REMARK                         _______ _______ _______ _____ _____    ______ ____
ROOT
ATOM      1  N   LIG    1        1.365  -1.034   2.549  0.00  0.00    -0.500 N 
ATOM      2  H   LIG    1        0.559  -0.427   2.567  0.00  0.00    +0.420 HD
ATOM      3  H   LIG    1        2.197  -0.492   2.727  0.00  0.00    +0.420 HD
ENDROOT
BRANCH   1   4
ATOM      4  C   LIG    1        1.223  -2.067   3.582  0.00  0.00    +0.160 C 
ATOM      5  C   LIG    1        2.516  -2.914   3.683  0.00  0.00    +0.040 C 
ATOM      6  C   LIG    1        2.442  -3.480   5.123  0.00  0.00    +0.050 C 
ATOM      7  C   LIG    1        1.859  -2.319   5.956  0.00  0.00    -0.060 C 
ATOM      8  C   LIG    1        2.990  -1.526   6.613  0.00  0.00    +0.040 C 
ATOM      9  C   LIG    1        0.913  -2.866   7.027  0.00  0.00    +0.040 C 
ATOM     10  C   LIG    1        1.080  -1.421   4.976  0.00  0.00    +0.050 C 
ENDBRANCH   1   4
BRANCH   1  11
ATOM     11  C   LIG    1        1.468  -1.671   1.229  0.00  0.00    +0.170 C 
BRANCH  11  12
ATOM     12  C   LIG    1        1.936  -0.641   0.200  0.00  0.00    +0.050 C 
ATOM     13  C   LIG    1        3.340  -0.155   0.566  0.00  0.00    +0.040 C 
ENDBRANCH  11  12
BRANCH  11  14
ATOM     14  C   LIG    1        0.099  -2.217   0.818  0.00  0.00    +0.100 C 
BRANCH  14  16
ATOM     15  C   LIG    1       -1.421  -3.365   2.345  0.00  0.00    +0.060 C 
ATOM     16  C   LIG    1       -0.272  -3.369   1.716  0.00  0.00    -0.060 C 
ENDBRANCH  14  16
ENDBRANCH  11  14
ENDBRANCH   1  11
TORSDOF 5
ENDMDL
MODEL      267
REMARK  Name = ZINC000308746918
REMARK                            x       y       z     vdW  Elec       q    Type
REMARK                         _______ _______ _______ _____ _____    ______ ____
ROOT
ATOM      1  N   LIG    1        0.232  -2.759   1.154  0.00  0.00    -0.500 N 
ATOM      2  H   LIG    1        0.309  -3.451   0.424  0.00  0.00    +0.430 HD
ATOM      3  H   LIG    1       -0.582  -2.186   0.989  0.00  0.00    +0.420 HD
ENDROOT
BRANCH   1   4
ATOM      4  C   LIG    1        0.104  -3.430   2.454  0.00  0.00    +0.160 C 
ATOM      5  C   LIG    1       -0.281  -2.411   3.555  0.00  0.00    +0.040 C 
ATOM      6  C   LIG    1       -0.947  -3.304   4.630  0.00  0.00    +0.050 C 
ATOM      7  C   LIG    1       -1.742  -4.347   3.817  0.00  0.00    -0.060 C 
ATOM      8  C   LIG    1       -3.198  -3.900   3.672  0.00  0.00    +0.040 C 
ATOM      9  C   LIG    1       -1.679  -5.710   4.509  0.00  0.00    +0.040 C 
ATOM     10  C   LIG    1       -1.071  -4.430   2.432  0.00  0.00    +0.050 C 
ENDBRANCH   1   4
BRANCH   1  11
ATOM     11  C   LIG    1        1.433  -1.913   1.155  0.00  0.00    +0.170 C 
BRANCH  11  12
ATOM     12  C   LIG    1        2.678  -2.796   1.265  0.00  0.00    +0.030 C 
ATOM     13  C   LIG    1        3.919  -1.913   1.412  0.00  0.00    +0.060 C 
ENDBRANCH  11  12
BRANCH  11  14
ATOM     14  C   LIG    1        1.492  -1.108  -0.144  0.00  0.00    +0.100 C 
BRANCH  14  16
ATOM     15  C   LIG    1        0.544   1.131  -0.370  0.00  0.00    +0.090 C 
ATOM     16  C   LIG    1        0.330  -0.150  -0.194  0.00  0.00    -0.110 C 
ENDBRANCH  14  16
ENDBRANCH  11  14
ENDBRANCH   1  11
TORSDOF 5
ENDMDL
MODEL      268
REMARK  Name = ZINC000308749724
REMARK                            x       y       z     vdW  Elec       q    Type
REMARK                         _______ _______ _______ _____ _____    ______ ____
ROOT
ATOM      1  C   LIG    1        2.981  -1.809   1.344  0.00  0.00    +0.160 C 
ATOM      2  C   LIG    1        4.111  -0.861   0.892  0.00  0.00    +0.050 C 
ATOM      3  C   LIG    1        5.326  -1.279   1.757  0.00  0.00    +0.050 C 
ATOM      4  C   LIG    1        4.677  -1.597   3.127  0.00  0.00    +0.050 C 
ATOM      5  C   LIG    1        3.340  -2.278   2.764  0.00  0.00    +0.000 C 
ENDROOT
BRANCH   1   6
ATOM      6  N   LIG    1        1.699  -1.091   1.360  0.00  0.00    -0.510 N 
ATOM      7  H   LIG    1        0.988  -1.682   1.765  0.00  0.00    +0.430 HD
ATOM      8  H   LIG    1        1.791  -0.250   1.909  0.00  0.00    +0.420 HD
BRANCH   6   9
ATOM      9  C   LIG    1        1.317  -0.740  -0.015  0.00  0.00    +0.300 C 
BRANCH   9  11
ATOM     10  C   LIG    1       -0.016   1.306   0.009  0.00  0.00    +0.120 C 
ATOM     11  C   LIG    1        0.002  -0.004   0.002  0.00  0.00    -0.200 C 
ATOM     12  C   LIG    1       -1.293  -0.775   0.010  0.00  0.00    +0.100 C 
ENDBRANCH   9  11
ENDBRANCH   6   9
ENDBRANCH   1   6
BRANCH   5  13
ATOM     13  C   LIG    1        2.250  -1.851   3.750  0.00  0.00    -0.010 C 
BRANCH  13  14
ATOM     14  C   LIG    1        2.576  -2.400   5.140  0.00  0.00    +0.020 C 
BRANCH  14  15
ATOM     15  C   LIG    1        1.486  -1.973   6.125  0.00  0.00    -0.010 C 
ATOM     16  C   LIG    1        1.812  -2.522   7.516  0.00  0.00    +0.020 C 
ENDBRANCH  14  15
ENDBRANCH  13  14
ENDBRANCH   5  13
TORSDOF 6
ENDMDL
MODEL      269
REMARK  Name = ZINC000308746916
REMARK                            x       y       z     vdW  Elec       q    Type
REMARK                         _______ _______ _______ _____ _____    ______ ____
ROOT
ATOM      1  N   LIG    1        0.395  -2.755   0.860  0.00  0.00    -0.500 N 
ATOM      2  H   LIG    1        0.850  -3.251   0.108  0.00  0.00    +0.420 HD
ATOM      3  H   LIG    1       -0.520  -2.455   0.560  0.00  0.00    +0.430 HD
ENDROOT
BRANCH   1   4
ATOM      4  C   LIG    1        0.263  -3.642   2.023  0.00  0.00    +0.160 C 
ATOM      5  C   LIG    1        1.594  -4.384   2.301  0.00  0.00    +0.050 C 
ATOM      6  C   LIG    1        1.167  -5.650   3.073  0.00  0.00    +0.050 C 
ATOM      7  C   LIG    1       -0.303  -5.916   2.703  0.00  0.00    -0.060 C 
ATOM      8  C   LIG    1       -1.177  -5.861   3.958  0.00  0.00    +0.040 C 
ATOM      9  C   LIG    1       -0.435  -7.284   2.032  0.00  0.00    +0.040 C 
ATOM     10  C   LIG    1       -0.722  -4.799   1.722  0.00  0.00    +0.060 C 
ENDBRANCH   1   4
BRANCH   1  11
ATOM     11  C   LIG    1        1.198  -1.581   1.228  0.00  0.00    +0.170 C 
BRANCH  11  12
ATOM     12  C   LIG    1        0.778  -1.091   2.616  0.00  0.00    +0.050 C 
ATOM     13  C   LIG    1       -0.696  -0.683   2.588  0.00  0.00    +0.020 C 
ENDBRANCH  11  12
BRANCH  11  14
ATOM     14  C   LIG    1        2.680  -1.963   1.249  0.00  0.00    +0.090 C 
BRANCH  14  16
ATOM     15  C   LIG    1        4.116  -1.843  -0.722  0.00  0.00    +0.090 C 
ATOM     16  C   LIG    1        3.101  -2.417  -0.125  0.00  0.00    -0.110 C 
ENDBRANCH  14  16
ENDBRANCH  11  14
ENDBRANCH   1  11
TORSDOF 5
ENDMDL
MODEL      270
REMARK  Name = ZINC000308749731
REMARK                            x       y       z     vdW  Elec       q    Type
REMARK                         _______ _______ _______ _____ _____    ______ ____
ROOT
ATOM      1  C   LIG    1        2.981  -1.809   1.344  0.00  0.00    +0.160 C 
ATOM      2  C   LIG    1        4.111  -0.861   0.892  0.00  0.00    +0.060 C 
ATOM      3  C   LIG    1        4.725  -0.344   2.217  0.00  0.00    +0.020 C 
ATOM      4  C   LIG    1        4.677  -1.597   3.127  0.00  0.00    +0.060 C 
ATOM      5  C   LIG    1        3.340  -2.278   2.764  0.00  0.00    -0.020 C 
ENDROOT
BRANCH   1   6
ATOM      6  N   LIG    1        1.699  -1.091   1.360  0.00  0.00    -0.500 N 
ATOM      7  H   LIG    1        0.988  -1.682   1.765  0.00  0.00    +0.430 HD
ATOM      8  H   LIG    1        1.791  -0.250   1.909  0.00  0.00    +0.420 HD
BRANCH   6   9
ATOM      9  C   LIG    1        1.317  -0.740  -0.015  0.00  0.00    +0.300 C 
BRANCH   9  11
ATOM     10  C   LIG    1       -0.016   1.306   0.009  0.00  0.00    +0.120 C 
ATOM     11  C   LIG    1        0.002  -0.004   0.002  0.00  0.00    -0.200 C 
ATOM     12  C   LIG    1       -1.293  -0.775   0.010  0.00  0.00    +0.100 C 
ENDBRANCH   9  11
ENDBRANCH   6   9
ENDBRANCH   1   6
BRANCH   5  13
ATOM     13  C   LIG    1        3.503  -3.799   2.791  0.00  0.00    +0.030 C 
BRANCH  13  14
ATOM     14  C   LIG    1        3.771  -4.258   4.226  0.00  0.00    +0.010 C 
BRANCH  14  15
ATOM     15  C   LIG    1        3.933  -5.779   4.253  0.00  0.00    -0.010 C 
ATOM     16  C   LIG    1        4.201  -6.238   5.688  0.00  0.00    +0.010 C 
ENDBRANCH  14  15
ENDBRANCH  13  14
ENDBRANCH   5  13
TORSDOF 6
ENDMDL
MODEL      271
REMARK  Name = ZINC000308762150
REMARK                            x       y       z     vdW  Elec       q    Type
REMARK                         _______ _______ _______ _____ _____    ______ ____
ROOT
ATOM      1  C   LIG    1        3.610  -2.670   0.385  0.00  0.00    +0.170 C 
ENDROOT
BRANCH   1   2
ATOM      2  N   LIG    1        4.617  -1.689   0.811  0.00  0.00    -0.500 N 
ATOM      3  H   LIG    1        4.517  -0.846   0.266  0.00  0.00    +0.430 HD
ATOM      4  H   LIG    1        5.540  -2.072   0.670  0.00  0.00    +0.430 HD
BRANCH   2   5
ATOM      5  C   LIG    1        4.428  -1.379   2.234  0.00  0.00    +0.300 C 
BRANCH   5   6
ATOM      6  C   LIG    1        5.474  -0.389   2.676  0.00  0.00    -0.130 C 
ATOM      7  C   LIG    1        6.236  -0.658   3.707  0.00  0.00    -0.030 C 
ATOM      8  C   LIG    1        7.368   0.269   4.069  0.00  0.00    +0.100 C 
ATOM      9  C   LIG    1        5.981  -1.894   4.530  0.00  0.00    +0.090 C 
ENDBRANCH   5   6
ENDBRANCH   2   5
ENDBRANCH   1   2
BRANCH   1  10
ATOM     10  C   LIG    1        2.211  -2.089   0.597  0.00  0.00    +0.060 C 
BRANCH  10  11
ATOM     11  C   LIG    1        2.015  -0.882  -0.324  0.00  0.00    +0.050 C 
BRANCH  11  13
ATOM     12  C   LIG    1        0.493   0.956   0.192  0.00  0.00    +0.040 C 
ATOM     13  C   LIG    1        0.637  -0.310  -0.115  0.00  0.00    -0.050 C 
ENDBRANCH  11  13
ENDBRANCH  10  11
ENDBRANCH   1  10
BRANCH   1  14
ATOM     14  C   LIG    1        3.762  -3.949   1.212  0.00  0.00    +0.050 C 
BRANCH  14  15
ATOM     15  C   LIG    1        5.146  -4.552   0.968  0.00  0.00    -0.000 C 
ATOM     16  C   LIG    1        5.252  -5.896   1.693  0.00  0.00    +0.030 C 
ENDBRANCH  14  15
ENDBRANCH   1  14
TORSDOF 8
ENDMDL
MODEL      272
REMARK  Name = ZINC000308756834
REMARK                            x       y       z     vdW  Elec       q    Type
REMARK                         _______ _______ _______ _____ _____    ______ ____
ROOT
ATOM      1  N   LIG    1        0.516  -2.684   1.117  0.00  0.00    -0.510 N 
ATOM      2  H   LIG    1        1.433  -2.262   1.102  0.00  0.00    +0.420 HD
ATOM      3  H   LIG    1        0.389  -3.242   0.286  0.00  0.00    +0.420 HD
ENDROOT
BRANCH   1   4
ATOM      4  C   LIG    1       -0.506  -1.630   1.160  0.00  0.00    +0.170 C 
ATOM      5  C   LIG    1       -0.218  -0.687   2.330  0.00  0.00    +0.090 C 
BRANCH   4   6
ATOM      6  C   LIG    1       -0.480  -0.840  -0.150  0.00  0.00    +0.090 C 
BRANCH   6   8
ATOM      7  C   LIG    1       -1.875  -1.400  -2.074  0.00  0.00    +0.090 C 
ATOM      8  C   LIG    1       -0.884  -1.741  -1.288  0.00  0.00    -0.110 C 
ENDBRANCH   6   8
ENDBRANCH   4   6
ENDBRANCH   1   4
BRANCH   1   9
ATOM      9  C   LIG    1        0.390  -3.538   2.306  0.00  0.00    +0.160 C 
BRANCH   9  10
ATOM     10  C   LIG    1       -0.618  -4.655   2.026  0.00  0.00    -0.020 C 
ATOM     11  C   LIG    1       -1.984  -4.042   1.711  0.00  0.00    +0.040 C 
BRANCH  10  12
ATOM     12  C   LIG    1       -0.734  -5.556   3.257  0.00  0.00    +0.030 C 
BRANCH  12  13
ATOM     13  C   LIG    1       -1.645  -6.742   2.936  0.00  0.00    +0.010 C 
ATOM     14  C   LIG    1       -1.762  -7.643   4.167  0.00  0.00    +0.020 C 
ENDBRANCH  12  13
ENDBRANCH  10  12
ENDBRANCH   9  10
BRANCH   9  15
ATOM     15  C   LIG    1        1.751  -4.151   2.640  0.00  0.00    +0.060 C 
ATOM     16  C   LIG    1        2.720  -3.043   3.059  0.00  0.00    +0.030 C 
ENDBRANCH   9  15
ENDBRANCH   1   9
TORSDOF 8
ENDMDL
MODEL      273
REMARK  Name = ZINC000308762148
REMARK                            x       y       z     vdW  Elec       q    Type
REMARK                         _______ _______ _______ _____ _____    ______ ____
ROOT
ATOM      1  C   LIG    1        1.706  -2.712   0.734  0.00  0.00    +0.170 C 
ENDROOT
BRANCH   1   2
ATOM      2  N   LIG    1        1.927  -3.608  -0.409  0.00  0.00    -0.500 N 
ATOM      3  H   LIG    1        1.971  -3.065  -1.258  0.00  0.00    +0.430 HD
ATOM      4  H   LIG    1        1.166  -4.268  -0.471  0.00  0.00    +0.430 HD
BRANCH   2   5
ATOM      5  C   LIG    1        3.191  -4.334  -0.225  0.00  0.00    +0.290 C 
BRANCH   5   6
ATOM      6  C   LIG    1        3.409  -5.265  -1.390  0.00  0.00    -0.130 C 
ATOM      7  C   LIG    1        3.631  -6.538  -1.178  0.00  0.00    -0.030 C 
ATOM      8  C   LIG    1        3.710  -7.494  -2.341  0.00  0.00    +0.100 C 
ATOM      9  C   LIG    1        3.807  -7.048   0.229  0.00  0.00    +0.090 C 
ENDBRANCH   5   6
ENDBRANCH   2   5
ENDBRANCH   1   2
BRANCH   1  10
ATOM     10  C   LIG    1        0.476  -1.842   0.470  0.00  0.00    +0.070 C 
BRANCH  10  11
ATOM     11  C   LIG    1        0.749  -0.920  -0.720  0.00  0.00    +0.040 C 
BRANCH  11  13
ATOM     12  C   LIG    1       -0.348   1.242  -1.013  0.00  0.00    +0.050 C 
ATOM     13  C   LIG    1       -0.463  -0.063  -0.980  0.00  0.00    -0.070 C 
ENDBRANCH  11  13
ENDBRANCH  10  11
ENDBRANCH   1  10
BRANCH   1  14
ATOM     14  C   LIG    1        1.480  -3.544   1.998  0.00  0.00    +0.040 C 
BRANCH  14  15
ATOM     15  C   LIG    1        1.306  -2.611   3.198  0.00  0.00    +0.030 C 
ATOM     16  C   LIG    1        1.214  -3.441   4.480  0.00  0.00    +0.030 C 
ENDBRANCH  14  15
ENDBRANCH   1  14
TORSDOF 8
ENDMDL
MODEL      274
REMARK  Name = ZINC000308756830
REMARK                            x       y       z     vdW  Elec       q    Type
REMARK                         _______ _______ _______ _____ _____    ______ ____
ROOT
ATOM      1  N   LIG    1        0.826  -3.295   1.135  0.00  0.00    -0.500 N 
ATOM      2  H   LIG    1        0.916  -3.998   0.417  0.00  0.00    +0.420 HD
ATOM      3  H   LIG    1        0.032  -2.707   0.931  0.00  0.00    +0.420 HD
ENDROOT
BRANCH   1   4
ATOM      4  C   LIG    1        2.044  -2.476   1.175  0.00  0.00    +0.170 C 
ATOM      5  C   LIG    1        3.265  -3.385   1.330  0.00  0.00    +0.090 C 
BRANCH   4   6
ATOM      6  C   LIG    1        2.165  -1.677  -0.125  0.00  0.00    +0.090 C 
BRANCH   6   8
ATOM      7  C   LIG    1        1.275   0.581  -0.391  0.00  0.00    +0.090 C 
ATOM      8  C   LIG    1        1.027  -0.694  -0.218  0.00  0.00    -0.110 C 
ENDBRANCH   6   8
ENDBRANCH   4   6
ENDBRANCH   1   4
BRANCH   1   9
ATOM      9  C   LIG    1        0.631  -3.946   2.437  0.00  0.00    +0.160 C 
BRANCH   9  10
ATOM     10  C   LIG    1       -0.195  -5.221   2.251  0.00  0.00    -0.010 C 
ATOM     11  C   LIG    1       -1.556  -4.863   1.651  0.00  0.00    +0.040 C 
BRANCH  10  12
ATOM     12  C   LIG    1       -0.398  -5.899   3.607  0.00  0.00    +0.030 C 
BRANCH  12  13
ATOM     13  C   LIG    1       -1.116  -7.236   3.406  0.00  0.00    +0.010 C 
ATOM     14  C   LIG    1       -1.319  -7.914   4.763  0.00  0.00    +0.020 C 
ENDBRANCH  12  13
ENDBRANCH  10  12
ENDBRANCH   9  10
BRANCH   9  15
ATOM     15  C   LIG    1       -0.108  -2.993   3.379  0.00  0.00    +0.060 C 
ATOM     16  C   LIG    1        0.781  -1.784   3.680  0.00  0.00    +0.030 C 
ENDBRANCH   9  15
ENDBRANCH   1   9
TORSDOF 8
ENDMDL
MODEL      275
REMARK  Name = ZINC000308762051
REMARK                            x       y       z     vdW  Elec       q    Type
REMARK                         _______ _______ _______ _____ _____    ______ ____
ROOT
ATOM      1  N   LIG    1       -1.347  -1.021  -2.546  0.00  0.00    -0.500 N 
ATOM      2  H   LIG    1       -0.554  -0.398  -2.543  0.00  0.00    +0.420 HD
ATOM      3  H   LIG    1       -2.189  -0.494  -2.719  0.00  0.00    +0.420 HD
ENDROOT
BRANCH   1   4
ATOM      4  C   LIG    1       -1.175  -2.029  -3.601  0.00  0.00    +0.150 C 
ATOM      5  C   LIG    1       -2.398  -2.947  -3.635  0.00  0.00    +0.030 C 
ATOM      6  C   LIG    1       -2.218  -3.996  -4.734  0.00  0.00    +0.040 C 
ATOM      7  C   LIG    1       -2.068  -3.297  -6.087  0.00  0.00    -0.010 C 
ATOM      8  C   LIG    1       -0.844  -2.379  -6.053  0.00  0.00    +0.040 C 
ATOM      9  C   LIG    1       -3.321  -2.467  -6.374  0.00  0.00    +0.010 C 
ATOM     10  C   LIG    1       -1.024  -1.330  -4.954  0.00  0.00    +0.030 C 
ENDBRANCH   1   4
BRANCH   1  11
ATOM     11  C   LIG    1       -1.448  -1.690  -1.242  0.00  0.00    +0.160 C 
BRANCH  11  12
ATOM     12  C   LIG    1       -1.919  -0.686  -0.189  0.00  0.00    +0.050 C 
ATOM     13  C   LIG    1       -3.324  -0.194  -0.545  0.00  0.00    +0.040 C 
ENDBRANCH  11  12
BRANCH  11  14
ATOM     14  C   LIG    1       -0.077  -2.241  -0.844  0.00  0.00    +0.100 C 
BRANCH  14  16
ATOM     15  C   LIG    1        1.442  -3.366  -2.389  0.00  0.00    +0.050 C 
ATOM     16  C   LIG    1        0.293  -3.379  -1.760  0.00  0.00    -0.060 C 
ENDBRANCH  14  16
ENDBRANCH  11  14
ENDBRANCH   1  11
TORSDOF 5
ENDMDL
MODEL      276
REMARK  Name = ZINC000308762050
REMARK                            x       y       z     vdW  Elec       q    Type
REMARK                         _______ _______ _______ _____ _____    ______ ____
ROOT
ATOM      1  N   LIG    1       -0.076  -2.715  -1.151  0.00  0.00    -0.510 N 
ATOM      2  H   LIG    1       -0.135  -3.422  -0.433  0.00  0.00    +0.430 HD
ATOM      3  H   LIG    1        0.693  -2.094  -0.949  0.00  0.00    +0.420 HD
ENDROOT
BRANCH   1   4
ATOM      4  C   LIG    1        0.141  -3.356  -2.454  0.00  0.00    +0.160 C 
ATOM      5  C   LIG    1        0.377  -2.282  -3.518  0.00  0.00    +0.040 C 
ATOM      6  C   LIG    1        0.603  -2.950  -4.876  0.00  0.00    +0.040 C 
ATOM      7  C   LIG    1        1.826  -3.866  -4.796  0.00  0.00    -0.010 C 
ATOM      8  C   LIG    1        1.590  -4.940  -3.732  0.00  0.00    +0.050 C 
ATOM      9  C   LIG    1        3.059  -3.039  -4.422  0.00  0.00    +0.010 C 
ATOM     10  C   LIG    1        1.364  -4.272  -2.375  0.00  0.00    +0.040 C 
ENDBRANCH   1   4
BRANCH   1  11
ATOM     11  C   LIG    1       -1.328  -1.947  -1.185  0.00  0.00    +0.170 C 
BRANCH  11  12
ATOM     12  C   LIG    1       -2.509  -2.905  -1.355  0.00  0.00    +0.030 C 
ATOM     13  C   LIG    1       -3.798  -2.099  -1.532  0.00  0.00    +0.060 C 
ENDBRANCH  11  12
BRANCH  11  14
ATOM     14  C   LIG    1       -1.486  -1.169   0.123  0.00  0.00    +0.100 C 
BRANCH  14  16
ATOM     15  C   LIG    1       -0.692   1.120   0.418  0.00  0.00    +0.090 C 
ATOM     16  C   LIG    1       -0.390  -0.141   0.231  0.00  0.00    -0.110 C 
ENDBRANCH  14  16
ENDBRANCH  11  14
ENDBRANCH   1  11
TORSDOF 5
ENDMDL
MODEL      277
REMARK  Name = ZINC000308756832
REMARK                            x       y       z     vdW  Elec       q    Type
REMARK                         _______ _______ _______ _____ _____    ______ ____
ROOT
ATOM      1  N   LIG    1        0.850  -3.315   1.148  0.00  0.00    -0.510 N 
ATOM      2  H   LIG    1        0.954  -4.024   0.438  0.00  0.00    +0.420 HD
ATOM      3  H   LIG    1        0.057  -2.732   0.927  0.00  0.00    +0.420 HD
ENDROOT
BRANCH   1   4
ATOM      4  C   LIG    1        2.065  -2.491   1.199  0.00  0.00    +0.170 C 
ATOM      5  C   LIG    1        3.287  -3.395   1.381  0.00  0.00    +0.090 C 
BRANCH   4   6
ATOM      6  C   LIG    1        2.203  -1.705  -0.106  0.00  0.00    +0.090 C 
BRANCH   6   8
ATOM      7  C   LIG    1        1.309   0.547  -0.407  0.00  0.00    +0.090 C 
ATOM      8  C   LIG    1        1.063  -0.727  -0.226  0.00  0.00    -0.110 C 
ENDBRANCH   6   8
ENDBRANCH   4   6
ENDBRANCH   1   4
BRANCH   1   9
ATOM      9  C   LIG    1        0.638  -3.956   2.453  0.00  0.00    +0.160 C 
BRANCH   9  10
ATOM     10  C   LIG    1       -0.190  -5.229   2.267  0.00  0.00    -0.010 C 
ATOM     11  C   LIG    1        0.556  -6.192   1.341  0.00  0.00    +0.040 C 
BRANCH  10  12
ATOM     12  C   LIG    1       -0.410  -5.896   3.626  0.00  0.00    +0.030 C 
BRANCH  12  13
ATOM     13  C   LIG    1       -1.341  -7.099   3.459  0.00  0.00    +0.010 C 
ATOM     14  C   LIG    1       -1.562  -7.767   4.818  0.00  0.00    +0.020 C 
ENDBRANCH  12  13
ENDBRANCH  10  12
ENDBRANCH   9  10
BRANCH   9  15
ATOM     15  C   LIG    1       -0.108  -2.993   3.379  0.00  0.00    +0.060 C 
ATOM     16  C   LIG    1        0.781  -1.784   3.680  0.00  0.00    +0.030 C 
ENDBRANCH   9  15
ENDBRANCH   1   9
TORSDOF 8
ENDMDL
MODEL      278
REMARK  Name = ZINC000308756836
REMARK                            x       y       z     vdW  Elec       q    Type
REMARK                         _______ _______ _______ _____ _____    ______ ____
ROOT
ATOM      1  N   LIG    1        0.508  -2.935   1.185  0.00  0.00    -0.510 N 
ATOM      2  H   LIG    1        1.242  -2.247   1.266  0.00  0.00    +0.420 HD
ATOM      3  H   LIG    1        0.685  -3.523   0.385  0.00  0.00    +0.420 HD
ENDROOT
BRANCH   1   4
ATOM      4  C   LIG    1       -0.784  -2.256   1.018  0.00  0.00    +0.170 C 
ATOM      5  C   LIG    1       -0.987  -1.259   2.161  0.00  0.00    +0.090 C 
BRANCH   4   6
ATOM      6  C   LIG    1       -0.799  -1.510  -0.318  0.00  0.00    +0.090 C 
BRANCH   6   8
ATOM      7  C   LIG    1       -1.635  -2.499  -2.387  0.00  0.00    +0.090 C 
ATOM      8  C   LIG    1       -0.722  -2.504  -1.448  0.00  0.00    -0.110 C 
ENDBRANCH   6   8
ENDBRANCH   4   6
ENDBRANCH   1   4
BRANCH   1   9
ATOM      9  C   LIG    1        0.474  -3.760   2.401  0.00  0.00    +0.160 C 
BRANCH   9  10
ATOM     10  C   LIG    1       -0.538  -4.893   2.220  0.00  0.00    -0.020 C 
ATOM     11  C   LIG    1       -0.062  -5.830   1.108  0.00  0.00    +0.050 C 
BRANCH  10  12
ATOM     12  C   LIG    1       -0.665  -5.677   3.527  0.00  0.00    +0.040 C 
BRANCH  12  13
ATOM     13  C   LIG    1       -1.766  -6.730   3.386  0.00  0.00    +0.000 C 
ATOM     14  C   LIG    1       -1.893  -7.514   4.693  0.00  0.00    +0.020 C 
ENDBRANCH  12  13
ENDBRANCH  10  12
ENDBRANCH   9  10
BRANCH   9  15
ATOM     15  C   LIG    1        1.862  -4.352   2.654  0.00  0.00    +0.050 C 
ATOM     16  C   LIG    1        2.845  -3.225   2.979  0.00  0.00    +0.030 C 
ENDBRANCH   9  15
ENDBRANCH   1   9
TORSDOF 8
ENDMDL
MODEL      279
REMARK  Name = ZINC001172356292
REMARK                            x       y       z     vdW  Elec       q    Type
REMARK                         _______ _______ _______ _____ _____    ______ ____
ROOT
ATOM      1  C   LIG    1        2.323  -6.067  -3.739  0.00  0.00    +0.170 C 
ENDROOT
BRANCH   1   2
ATOM      2  N   LIG    1        3.011  -6.541  -4.948  0.00  0.00    -0.410 N 
ATOM      3  C   LIG    1        2.679  -7.934  -5.303  0.00  0.00    +0.290 C 
ATOM      4  C   LIG    1        2.698  -7.503  -6.777  0.00  0.00    +0.090 C 
ATOM      5  C   LIG    1        2.352  -6.122  -6.199  0.00  0.00    +0.290 C 
ATOM      6  H   LIG    1        4.002  -6.356  -4.935  0.00  0.00    +0.430 HD
ENDBRANCH   1   2
BRANCH   1   7
ATOM      7  C   LIG    1        3.153  -6.429  -2.506  0.00  0.00    +0.040 C 
ATOM      8  C   LIG    1        3.219  -7.951  -2.364  0.00  0.00    +0.020 C 
ENDBRANCH   1   7
BRANCH   1   9
ATOM      9  C   LIG    1        2.152  -4.549  -3.812  0.00  0.00    +0.040 C 
BRANCH   9  10
ATOM     10  C   LIG    1        1.312  -4.073  -2.626  0.00  0.00    +0.020 C 
BRANCH  10  11
ATOM     11  C   LIG    1        1.222  -2.546  -2.644  0.00  0.00    +0.020 C 
BRANCH  11  12
ATOM     12  C   LIG    1        0.382  -2.070  -1.457  0.00  0.00    +0.000 C 
BRANCH  12  13
ATOM     13  C   LIG    1        0.292  -0.542  -1.475  0.00  0.00    +0.000 C 
BRANCH  13  15
ATOM     14  C   LIG    1       -0.637   1.461  -0.307  0.00  0.00    +0.000 C 
ATOM     15  C   LIG    1       -0.548  -0.066  -0.289  0.00  0.00    -0.010 C 
ENDBRANCH  13  15
ENDBRANCH  12  13
ENDBRANCH  11  12
ENDBRANCH  10  11
ENDBRANCH   9  10
ENDBRANCH   1   9
TORSDOF 8
ENDMDL
MODEL      280
REMARK  Name = ZINC000051753524
REMARK                            x       y       z     vdW  Elec       q    Type
REMARK                         _______ _______ _______ _____ _____    ______ ____
ROOT
ATOM      1  C   LIG    1        2.981  -1.809   1.344  0.00  0.00    +0.170 C 
ATOM      2  C   LIG    1        4.083  -0.872   0.845  0.00  0.00    +0.060 C 
ATOM      3  C   LIG    1        4.186   0.336   1.778  0.00  0.00    +0.020 C 
ATOM      4  C   LIG    1        4.522  -0.139   3.192  0.00  0.00    -0.010 C 
ATOM      5  C   LIG    1        3.420  -1.075   3.691  0.00  0.00    +0.020 C 
ATOM      6  C   LIG    1        3.317  -2.284   2.759  0.00  0.00    +0.060 C 
ENDROOT
BRANCH   1   7
ATOM      7  N   LIG    1        1.699  -1.091   1.360  0.00  0.00    -0.510 N 
ATOM      8  H   LIG    1        0.988  -1.682   1.765  0.00  0.00    +0.430 HD
ATOM      9  H   LIG    1        1.791  -0.250   1.909  0.00  0.00    +0.420 HD
BRANCH   7  10
ATOM     10  C   LIG    1        1.317  -0.740  -0.015  0.00  0.00    +0.300 C 
BRANCH  10  12
ATOM     11  C   LIG    1       -0.016   1.306   0.009  0.00  0.00    +0.120 C 
ATOM     12  C   LIG    1        0.002  -0.004   0.002  0.00  0.00    -0.200 C 
ATOM     13  C   LIG    1       -1.293  -0.775   0.010  0.00  0.00    +0.090 C 
ENDBRANCH  10  12
ENDBRANCH   7  10
ENDBRANCH   1   7
BRANCH   4  14
ATOM     14  C   LIG    1        4.626   1.070   4.125  0.00  0.00    +0.010 C 
BRANCH  14  15
ATOM     15  C   LIG    1        5.083   0.607   5.510  0.00  0.00    -0.010 C 
ATOM     16  C   LIG    1        5.187   1.816   6.443  0.00  0.00    +0.010 C 
ENDBRANCH  14  15
ENDBRANCH   4  14
TORSDOF 5
ENDMDL
MODEL      281
REMARK  Name = ZINC001172350130
REMARK                            x       y       z     vdW  Elec       q    Type
REMARK                         _______ _______ _______ _____ _____    ______ ____
ROOT
ATOM      1  C   LIG    1        2.715  -2.282   0.886  0.00  0.00    +0.170 C 
ENDROOT
BRANCH   1   2
ATOM      2  N   LIG    1        1.539  -1.402   0.899  0.00  0.00    -0.510 N 
ATOM      3  H   LIG    1        0.700  -1.962   0.915  0.00  0.00    +0.430 HD
ATOM      4  H   LIG    1        1.567  -0.815   1.719  0.00  0.00    +0.430 HD
BRANCH   2   5
ATOM      5  C   LIG    1        1.544  -0.561  -0.306  0.00  0.00    +0.300 C 
BRANCH   5   7
ATOM      6  C   LIG    1        0.639   1.706  -0.354  0.00  0.00    +0.130 C 
ATOM      7  C   LIG    1        0.404   0.423  -0.237  0.00  0.00    -0.110 C 
ENDBRANCH   5   7
ENDBRANCH   2   5
ENDBRANCH   1   2
BRANCH   1   8
ATOM      8  C   LIG    1        2.605  -3.262  -0.284  0.00  0.00    +0.030 C 
ATOM      9  C   LIG    1        3.885  -4.097  -0.371  0.00  0.00    +0.060 C 
ENDBRANCH   1   8
BRANCH   1  10
ATOM     10  C   LIG    1        2.782  -3.063   2.200  0.00  0.00    +0.060 C 
BRANCH  10  11
ATOM     11  C   LIG    1        3.016  -2.091   3.359  0.00  0.00    +0.010 C 
BRANCH  11  12
ATOM     12  C   LIG    1        3.083  -2.871   4.673  0.00  0.00    +0.020 C 
BRANCH  12  13
ATOM     13  C   LIG    1        3.318  -1.900   5.832  0.00  0.00    +0.000 C 
BRANCH  13  14
ATOM     14  C   LIG    1        3.385  -2.680   7.146  0.00  0.00    +0.000 C 
BRANCH  14  15
ATOM     15  C   LIG    1        3.619  -1.708   8.305  0.00  0.00    -0.010 C 
ATOM     16  C   LIG    1        3.686  -2.488   9.619  0.00  0.00    +0.010 C 
ENDBRANCH  14  15
ENDBRANCH  13  14
ENDBRANCH  12  13
ENDBRANCH  11  12
ENDBRANCH  10  11
ENDBRANCH   1  10
TORSDOF 10
ENDMDL
MODEL      282
REMARK  Name = ZINC000163501765
REMARK                            x       y       z     vdW  Elec       q    Type
REMARK                         _______ _______ _______ _____ _____    ______ ____
ROOT
ATOM      1  N   LIG    1       -0.264  -2.750  -1.010  0.00  0.00    -0.510 N 
ATOM      2  H   LIG    1       -0.466  -3.317  -0.200  0.00  0.00    +0.420 HD
ATOM      3  H   LIG    1        0.625  -2.290  -0.885  0.00  0.00    +0.420 HD
ENDROOT
BRANCH   1   4
ATOM      4  C   LIG    1       -0.210  -3.603  -2.204  0.00  0.00    +0.160 C 
ATOM      5  C   LIG    1        0.218  -2.766  -3.411  0.00  0.00    +0.040 C 
ATOM      6  C   LIG    1        0.274  -3.655  -4.655  0.00  0.00    +0.030 C 
ATOM      7  C   LIG    1        1.285  -4.782  -4.431  0.00  0.00    +0.020 C 
ATOM      8  C   LIG    1        0.856  -5.619  -3.225  0.00  0.00    +0.050 C 
ATOM      9  C   LIG    1        0.800  -4.730  -1.981  0.00  0.00    -0.020 C 
BRANCH   9  10
ATOM     10  C   LIG    1        0.372  -5.568  -0.774  0.00  0.00    +0.000 C 
ATOM     11  C   LIG    1        1.446  -6.616  -0.474  0.00  0.00    +0.040 C 
ENDBRANCH   9  10
ENDBRANCH   1   4
BRANCH   1  12
ATOM     12  C   LIG    1       -1.319  -1.741  -1.176  0.00  0.00    +0.170 C 
ATOM     13  C   LIG    1       -2.682  -2.433  -1.241  0.00  0.00    +0.090 C 
BRANCH  12  14
ATOM     14  C   LIG    1       -1.293  -0.775   0.010  0.00  0.00    +0.090 C 
BRANCH  14  16
ATOM     15  C   LIG    1       -0.016   1.306   0.009  0.00  0.00    +0.090 C 
ATOM     16  C   LIG    1        0.002  -0.004   0.002  0.00  0.00    -0.110 C 
ENDBRANCH  14  16
ENDBRANCH  12  14
ENDBRANCH   1  12
TORSDOF 5
ENDMDL
MODEL      283
REMARK  Name = ZINC000163501677
REMARK                            x       y       z     vdW  Elec       q    Type
REMARK                         _______ _______ _______ _____ _____    ______ ____
ROOT
ATOM      1  N   LIG    1       -0.264  -2.750  -1.010  0.00  0.00    -0.510 N 
ATOM      2  H   LIG    1       -0.466  -3.317  -0.200  0.00  0.00    +0.420 HD
ATOM      3  H   LIG    1        0.625  -2.290  -0.885  0.00  0.00    +0.420 HD
ENDROOT
BRANCH   1   4
ATOM      4  C   LIG    1       -0.210  -3.603  -2.204  0.00  0.00    +0.170 C 
ATOM      5  C   LIG    1        0.218  -2.766  -3.411  0.00  0.00    +0.060 C 
ATOM      6  C   LIG    1        1.601  -2.166  -3.150  0.00  0.00    +0.010 C 
ATOM      7  C   LIG    1        2.612  -3.292  -2.927  0.00  0.00    +0.030 C 
ATOM      8  C   LIG    1        2.183  -4.130  -1.720  0.00  0.00    +0.020 C 
ATOM      9  C   LIG    1        0.800  -4.730  -1.981  0.00  0.00    +0.010 C 
BRANCH   9  10
ATOM     10  C   LIG    1        0.372  -5.568  -0.774  0.00  0.00    -0.000 C 
ATOM     11  C   LIG    1        1.312  -6.766  -0.626  0.00  0.00    +0.030 C 
ENDBRANCH   9  10
ENDBRANCH   1   4
BRANCH   1  12
ATOM     12  C   LIG    1       -1.319  -1.741  -1.176  0.00  0.00    +0.160 C 
ATOM     13  C   LIG    1       -2.682  -2.433  -1.241  0.00  0.00    +0.090 C 
BRANCH  12  14
ATOM     14  C   LIG    1       -1.293  -0.775   0.010  0.00  0.00    +0.100 C 
BRANCH  14  16
ATOM     15  C   LIG    1       -0.016   1.306   0.009  0.00  0.00    +0.090 C 
ATOM     16  C   LIG    1        0.002  -0.004   0.002  0.00  0.00    -0.110 C 
ENDBRANCH  14  16
ENDBRANCH  12  14
ENDBRANCH   1  12
TORSDOF 5
ENDMDL
MODEL      284
REMARK  Name = ZINC000163501951
REMARK                            x       y       z     vdW  Elec       q    Type
REMARK                         _______ _______ _______ _____ _____    ______ ____
ROOT
ATOM      1  N   LIG    1       -0.416  -2.719  -0.903  0.00  0.00    -0.510 N 
ATOM      2  H   LIG    1       -0.704  -3.202  -0.065  0.00  0.00    +0.420 HD
ATOM      3  H   LIG    1        0.490  -2.300  -0.755  0.00  0.00    +0.420 HD
ENDROOT
BRANCH   1   4
ATOM      4  C   LIG    1       -0.337  -3.675  -2.015  0.00  0.00    +0.170 C 
ATOM      5  C   LIG    1       -1.693  -4.361  -2.196  0.00  0.00    +0.060 C 
ATOM      6  C   LIG    1       -2.064  -5.104  -0.911  0.00  0.00    +0.020 C 
ATOM      7  C   LIG    1       -0.997  -6.156  -0.604  0.00  0.00    +0.030 C 
ATOM      8  C   LIG    1        0.359  -5.471  -0.423  0.00  0.00    +0.020 C 
ATOM      9  C   LIG    1        0.730  -4.728  -1.708  0.00  0.00    +0.010 C 
BRANCH   9  10
ATOM     10  C   LIG    1        2.086  -4.043  -1.528  0.00  0.00    -0.000 C 
ATOM     11  C   LIG    1        3.173  -5.103  -1.345  0.00  0.00    +0.030 C 
ENDBRANCH   9  10
ENDBRANCH   1   4
BRANCH   1  12
ATOM     12  C   LIG    1       -1.394  -1.672  -1.226  0.00  0.00    +0.160 C 
ATOM     13  C   LIG    1       -1.604  -0.776  -0.004  0.00  0.00    +0.090 C 
BRANCH  12  14
ATOM     14  C   LIG    1       -0.873  -0.830  -2.392  0.00  0.00    +0.090 C 
BRANCH  14  16
ATOM     15  C   LIG    1       -2.140  -0.828  -4.479  0.00  0.00    +0.080 C 
ATOM     16  C   LIG    1       -1.300  -1.456  -3.695  0.00  0.00    -0.090 C 
ENDBRANCH  14  16
ENDBRANCH  12  14
ENDBRANCH   1  12
TORSDOF 5
ENDMDL
MODEL      285
REMARK  Name = ZINC001172392680
REMARK                            x       y       z     vdW  Elec       q    Type
REMARK                         _______ _______ _______ _____ _____    ______ ____
ROOT
ATOM      1  C   LIG    1        2.708  -2.294   0.896  0.00  0.00    +0.170 C 
ENDROOT
BRANCH   1   2
ATOM      2  N   LIG    1        1.533  -1.412   0.909  0.00  0.00    -0.510 N 
ATOM      3  H   LIG    1        0.693  -1.971   0.915  0.00  0.00    +0.430 HD
ATOM      4  H   LIG    1        1.557  -0.832   1.735  0.00  0.00    +0.430 HD
BRANCH   2   5
ATOM      5  C   LIG    1        1.547  -0.560  -0.288  0.00  0.00    +0.300 C 
BRANCH   5   7
ATOM      6  C   LIG    1        0.645   1.709  -0.321  0.00  0.00    +0.130 C 
ATOM      7  C   LIG    1        0.408   0.424  -0.216  0.00  0.00    -0.110 C 
ENDBRANCH   5   7
ENDBRANCH   2   5
ENDBRANCH   1   2
BRANCH   1   8
ATOM      8  C   LIG    1        2.765  -3.086   2.203  0.00  0.00    +0.060 C 
BRANCH   8   9
ATOM      9  C   LIG    1        2.993  -2.126   3.372  0.00  0.00    +0.010 C 
BRANCH   9  10
ATOM     10  C   LIG    1        3.051  -2.919   4.680  0.00  0.00    +0.020 C 
BRANCH  10  11
ATOM     11  C   LIG    1        3.279  -1.958   5.849  0.00  0.00    +0.000 C 
BRANCH  11  12
ATOM     12  C   LIG    1        3.336  -2.751   7.156  0.00  0.00    -0.010 C 
ATOM     13  C   LIG    1        3.564  -1.791   8.325  0.00  0.00    +0.000 C 
ENDBRANCH  11  12
ENDBRANCH  10  11
ENDBRANCH   9  10
ENDBRANCH   8   9
ENDBRANCH   1   8
BRANCH   1  14
ATOM     14  C   LIG    1        2.605  -3.262  -0.284  0.00  0.00    +0.030 C 
BRANCH  14  15
ATOM     15  C   LIG    1        3.885  -4.097  -0.371  0.00  0.00    +0.030 C 
ATOM     16  C   LIG    1        3.837  -4.974  -1.624  0.00  0.00    +0.030 C 
ENDBRANCH  14  15
ENDBRANCH   1  14
TORSDOF 10
ENDMDL
MODEL      286
REMARK  Name = ZINC001172392681
REMARK                            x       y       z     vdW  Elec       q    Type
REMARK                         _______ _______ _______ _____ _____    ______ ____
ROOT
ATOM      1  C   LIG    1        2.596  -2.478   1.027  0.00  0.00    +0.170 C 
ENDROOT
BRANCH   1   2
ATOM      2  N   LIG    1        1.362  -1.704   1.216  0.00  0.00    -0.510 N 
ATOM      3  H   LIG    1        0.564  -2.312   1.109  0.00  0.00    +0.430 HD
ATOM      4  H   LIG    1        1.356  -1.300   2.140  0.00  0.00    +0.430 HD
BRANCH   2   5
ATOM      5  C   LIG    1        1.298  -0.632   0.213  0.00  0.00    +0.300 C 
BRANCH   5   7
ATOM      6  C   LIG    1       -0.058   1.379   0.493  0.00  0.00    +0.130 C 
ATOM      7  C   LIG    1       -0.025   0.080   0.322  0.00  0.00    -0.110 C 
ENDBRANCH   5   7
ENDBRANCH   2   5
ENDBRANCH   1   2
BRANCH   1   8
ATOM      8  C   LIG    1        2.593  -3.680   1.974  0.00  0.00    +0.060 C 
BRANCH   8   9
ATOM      9  C   LIG    1        1.457  -4.630   1.590  0.00  0.00    +0.010 C 
BRANCH   9  10
ATOM     10  C   LIG    1        1.454  -5.831   2.537  0.00  0.00    +0.020 C 
BRANCH  10  11
ATOM     11  C   LIG    1        0.318  -6.781   2.153  0.00  0.00    +0.000 C 
BRANCH  11  12
ATOM     12  C   LIG    1        0.316  -7.982   3.100  0.00  0.00    -0.010 C 
ATOM     13  C   LIG    1       -0.821  -8.932   2.716  0.00  0.00    +0.000 C 
ENDBRANCH  11  12
ENDBRANCH  10  11
ENDBRANCH   9  10
ENDBRANCH   8   9
ENDBRANCH   1   8
BRANCH   1  14
ATOM     14  C   LIG    1        3.805  -1.592   1.331  0.00  0.00    +0.040 C 
BRANCH  14  15
ATOM     15  C   LIG    1        5.091  -2.354   1.003  0.00  0.00    +0.030 C 
ATOM     16  C   LIG    1        6.294  -1.426   1.183  0.00  0.00    +0.030 C 
ENDBRANCH  14  15
ENDBRANCH   1  14
TORSDOF 10
ENDMDL
MODEL      287
REMARK  Name = ZINC000100032345
REMARK                            x       y       z     vdW  Elec       q    Type
REMARK                         _______ _______ _______ _____ _____    ______ ____
ROOT
ATOM      1  C   LIG    1       -4.242  -6.182   0.009  0.00  0.00    +0.250 C 
ENDROOT
BRANCH   1   2
ATOM      2  N   LIG    1       -5.620  -6.691   0.020  0.00  0.00    -0.510 N 
ATOM      3  H   LIG    1       -6.108  -6.356  -0.798  0.00  0.00    +0.430 HD
ATOM      4  H   LIG    1       -6.092  -6.365   0.850  0.00  0.00    +0.430 HD
BRANCH   2   5
ATOM      5  C   LIG    1       -5.600  -8.160   0.012  0.00  0.00    +0.170 C 
ATOM      6  C   LIG    1       -5.089  -8.702   1.369  0.00  0.00    +0.040 C 
ATOM      7  C   LIG    1       -5.689 -10.130   1.415  0.00  0.00    +0.050 C 
ATOM      8  C   LIG    1       -7.090  -9.971   0.789  0.00  0.00    +0.030 C 
ATOM      9  C   LIG    1       -7.033  -8.718  -0.104  0.00  0.00    +0.050 C 
ENDBRANCH   2   5
ENDBRANCH   1   2
BRANCH   1  10
ATOM     10  C   LIG    1       -4.263  -4.652   0.018  0.00  0.00    +0.030 C 
BRANCH  10  11
ATOM     11  C   LIG    1       -2.827  -4.123   0.007  0.00  0.00    +0.020 C 
BRANCH  11  12
ATOM     12  C   LIG    1       -2.848  -2.593   0.015  0.00  0.00    +0.020 C 
BRANCH  12  13
ATOM     13  C   LIG    1       -1.413  -2.063   0.004  0.00  0.00    +0.000 C 
BRANCH  13  14
ATOM     14  C   LIG    1       -1.433  -0.534   0.013  0.00  0.00    +0.000 C 
BRANCH  14  16
ATOM     15  C   LIG    1       -0.019   1.526   0.010  0.00  0.00    +0.000 C 
ATOM     16  C   LIG    1        0.002  -0.004   0.002  0.00  0.00    -0.010 C 
ENDBRANCH  14  16
ENDBRANCH  13  14
ENDBRANCH  12  13
ENDBRANCH  11  12
ENDBRANCH  10  11
ENDBRANCH   1  10
TORSDOF 8
ENDMDL
MODEL      288
REMARK  Name = ZINC001172403617
REMARK                            x       y       z     vdW  Elec       q    Type
REMARK                         _______ _______ _______ _____ _____    ______ ____
ROOT
ATOM      1  N   LIG    1       -0.764  -0.549  -1.650  0.00  0.00    -0.380 N 
ATOM      2  H   LIG    1       -0.577  -0.154  -2.559  0.00  0.00    +0.420 HD
ENDROOT
BRANCH   1   3
ATOM      3  C   LIG    1        0.144   0.046  -0.661  0.00  0.00    +0.240 C 
ATOM      4  C   LIG    1        0.994   1.127  -1.334  0.00  0.00    +0.080 C 
ENDBRANCH   1   3
BRANCH   1   5
ATOM      5  C   LIG    1       -2.155  -0.267  -1.271  0.00  0.00    +0.290 C 
BRANCH   5   7
ATOM      6  C   LIG    1       -2.544   1.817  -2.481  0.00  0.00    +0.110 C 
ATOM      7  C   LIG    1       -2.398   1.219  -1.325  0.00  0.00    -0.180 C 
ATOM      8  C   LIG    1       -2.475   2.017  -0.049  0.00  0.00    +0.100 C 
ENDBRANCH   5   7
ENDBRANCH   1   5
BRANCH   1   9
ATOM      9  C   LIG    1       -0.554  -2.003  -1.695  0.00  0.00    +0.160 C 
BRANCH   9  10
ATOM     10  C   LIG    1       -1.206  -2.574  -2.956  0.00  0.00    +0.050 C 
ATOM     11  C   LIG    1       -0.499  -2.017  -4.193  0.00  0.00    +0.040 C 
ENDBRANCH   9  10
BRANCH   9  12
ATOM     12  C   LIG    1       -1.183  -2.647  -0.459  0.00  0.00    +0.060 C 
BRANCH  12  13
ATOM     13  C   LIG    1       -0.406  -2.224   0.789  0.00  0.00    -0.040 C 
ATOM     14  C   LIG    1        1.041  -2.709   0.678  0.00  0.00    +0.020 C 
ATOM     15  C   LIG    1       -1.057  -2.840   2.029  0.00  0.00    +0.040 C 
ENDBRANCH  12  13
ENDBRANCH   9  12
ENDBRANCH   1   9
TORSDOF 7
ENDMDL
MODEL      289
REMARK  Name = ZINC001172403618
REMARK                            x       y       z     vdW  Elec       q    Type
REMARK                         _______ _______ _______ _____ _____    ______ ____
ROOT
ATOM      1  N   LIG    1       -1.937  -1.302  -1.819  0.00  0.00    -0.380 N 
ATOM      2  H   LIG    1       -1.435  -0.571  -1.338  0.00  0.00    +0.420 HD
ENDROOT
BRANCH   1   3
ATOM      3  C   LIG    1       -2.819  -0.706  -2.832  0.00  0.00    +0.240 C 
ATOM      4  C   LIG    1       -2.270   0.661  -3.245  0.00  0.00    +0.070 C 
ENDBRANCH   1   3
BRANCH   1   5
ATOM      5  C   LIG    1       -0.980  -2.204  -2.473  0.00  0.00    +0.300 C 
BRANCH   5   7
ATOM      6  C   LIG    1        1.059  -0.960  -2.977  0.00  0.00    +0.110 C 
ATOM      7  C   LIG    1       -0.096  -1.411  -3.401  0.00  0.00    -0.190 C 
ATOM      8  C   LIG    1       -0.539  -1.139  -4.815  0.00  0.00    +0.100 C 
ENDBRANCH   5   7
ENDBRANCH   1   5
BRANCH   1   9
ATOM      9  C   LIG    1       -2.744  -2.061  -0.853  0.00  0.00    +0.160 C 
BRANCH   9  10
ATOM     10  C   LIG    1       -3.640  -1.099  -0.071  0.00  0.00    +0.050 C 
ATOM     11  C   LIG    1       -2.771  -0.134   0.737  0.00  0.00    +0.030 C 
ENDBRANCH   9  10
BRANCH   9  12
ATOM     12  C   LIG    1       -3.612  -3.075  -1.599  0.00  0.00    +0.040 C 
BRANCH  12  13
ATOM     13  C   LIG    1       -4.362  -3.945  -0.589  0.00  0.00    -0.010 C 
ATOM     14  C   LIG    1       -3.361  -4.801   0.190  0.00  0.00    +0.020 C 
ATOM     15  C   LIG    1       -5.344  -4.856  -1.329  0.00  0.00    +0.040 C 
ENDBRANCH  12  13
ENDBRANCH   9  12
ENDBRANCH   1   9
TORSDOF 7
ENDMDL
MODEL      290
REMARK  Name = ZINC001207753152
REMARK                            x       y       z     vdW  Elec       q    Type
REMARK                         _______ _______ _______ _____ _____    ______ ____
ROOT
ATOM      1  N   LIG    1        2.421   0.230  -0.020  0.00  0.00    -0.510 N 
ATOM      2  H   LIG    1        2.367   0.805   0.808  0.00  0.00    +0.430 HD
ATOM      3  H   LIG    1        2.352   0.814  -0.840  0.00  0.00    +0.430 HD
ENDROOT
BRANCH   1   4
ATOM      4  C   LIG    1        1.317  -0.740  -0.015  0.00  0.00    +0.090 C 
ATOM      5  C   LIG    1        1.398  -1.611  -1.269  0.00  0.00    +0.110 C 
ATOM      6  C   LIG    1        1.422  -1.625   1.229  0.00  0.00    +0.110 C 
BRANCH   4   8
ATOM      7  C   LIG    1       -0.016   1.306   0.009  0.00  0.00    +0.050 C 
ATOM      8  C   LIG    1        0.002  -0.004   0.002  0.00  0.00    -0.020 C 
ENDBRANCH   4   8
ENDBRANCH   1   4
BRANCH   1   9
ATOM      9  C   LIG    1        3.703  -0.487  -0.036  0.00  0.00    +0.260 C 
BRANCH   9  10
ATOM     10  C   LIG    1        4.852   0.523  -0.042  0.00  0.00    +0.040 C 
BRANCH  10  11
ATOM     11  C   LIG    1        6.187  -0.224  -0.058  0.00  0.00    +0.000 C 
ATOM     12  C   LIG    1        6.322  -0.998  -1.371  0.00  0.00    +0.010 C 
ATOM     13  C   LIG    1        7.657  -1.745  -1.388  0.00  0.00    +0.010 C 
ATOM     14  C   LIG    1        8.805  -0.740  -1.268  0.00  0.00    +0.010 C 
ATOM     15  C   LIG    1        8.670   0.034   0.045  0.00  0.00    +0.010 C 
ATOM     16  C   LIG    1        7.335   0.780   0.062  0.00  0.00    +0.020 C 
ENDBRANCH  10  11
ENDBRANCH   9  10
ENDBRANCH   1   9
TORSDOF 5
ENDMDL
MODEL      291
REMARK  Name = ZINC000169139350
REMARK                            x       y       z     vdW  Elec       q    Type
REMARK                         _______ _______ _______ _____ _____    ______ ____
ROOT
ATOM      1  N   LIG    1        0.343  -2.753   0.984  0.00  0.00    -0.510 N 
ATOM      2  H   LIG    1        0.560  -3.305   0.168  0.00  0.00    +0.430 HD
ATOM      3  H   LIG    1       -0.558  -2.315   0.864  0.00  0.00    +0.430 HD
ENDROOT
BRANCH   1   4
ATOM      4  C   LIG    1        1.370  -1.717   1.161  0.00  0.00    +0.170 C 
ATOM      5  C   LIG    1        2.751  -2.373   1.218  0.00  0.00    +0.090 C 
BRANCH   4   6
ATOM      6  C   LIG    1        1.317  -0.740  -0.015  0.00  0.00    +0.090 C 
BRANCH   6   8
ATOM      7  C   LIG    1       -0.016   1.306   0.009  0.00  0.00    +0.090 C 
ATOM      8  C   LIG    1        0.002  -0.004   0.002  0.00  0.00    -0.110 C 
ENDBRANCH   6   8
ENDBRANCH   4   6
ENDBRANCH   1   4
BRANCH   1   9
ATOM      9  C   LIG    1        0.312  -3.620   2.168  0.00  0.00    +0.240 C 
BRANCH   9  10
ATOM     10  C   LIG    1       -0.757  -4.699   1.983  0.00  0.00    +0.030 C 
BRANCH  10  11
ATOM     11  C   LIG    1       -0.789  -5.603   3.217  0.00  0.00    +0.000 C 
ATOM     12  C   LIG    1       -1.239  -4.791   4.433  0.00  0.00    +0.010 C 
ATOM     13  C   LIG    1       -1.271  -5.695   5.667  0.00  0.00    +0.010 C 
ATOM     14  C   LIG    1       -2.251  -6.846   5.431  0.00  0.00    +0.010 C 
ATOM     15  C   LIG    1       -1.800  -7.658   4.215  0.00  0.00    +0.010 C 
ATOM     16  C   LIG    1       -1.769  -6.754   2.981  0.00  0.00    +0.020 C 
ENDBRANCH  10  11
ENDBRANCH   9  10
ENDBRANCH   1   9
TORSDOF 6
ENDMDL
MODEL      292
REMARK  Name = ZINC000169139427
REMARK                            x       y       z     vdW  Elec       q    Type
REMARK                         _______ _______ _______ _____ _____    ______ ____
ROOT
ATOM      1  N   LIG    1        1.361  -0.966   2.424  0.00  0.00    -0.510 N 
ATOM      2  H   LIG    1        0.559  -0.353   2.445  0.00  0.00    +0.430 HD
ATOM      3  H   LIG    1        2.204  -0.417   2.494  0.00  0.00    +0.420 HD
ENDROOT
BRANCH   1   4
ATOM      4  C   LIG    1        1.370  -1.717   1.161  0.00  0.00    +0.170 C 
ATOM      5  C   LIG    1        2.649  -2.552   1.074  0.00  0.00    +0.090 C 
BRANCH   4   6
ATOM      6  C   LIG    1        1.317  -0.740  -0.015  0.00  0.00    +0.100 C 
BRANCH   6   8
ATOM      7  C   LIG    1       -0.016   1.306   0.009  0.00  0.00    +0.060 C 
ATOM      8  C   LIG    1        0.002  -0.004   0.002  0.00  0.00    -0.090 C 
ENDBRANCH   6   8
ENDBRANCH   4   6
ENDBRANCH   1   4
BRANCH   1   9
ATOM      9  C   LIG    1        1.290  -1.904   3.552  0.00  0.00    +0.240 C 
BRANCH   9  10
ATOM     10  C   LIG    1        1.281  -1.121   4.866  0.00  0.00    +0.030 C 
BRANCH  10  11
ATOM     11  C   LIG    1        1.207  -2.098   6.041  0.00  0.00    +0.000 C 
ATOM     12  C   LIG    1        2.482  -2.943   6.082  0.00  0.00    +0.010 C 
ATOM     13  C   LIG    1        2.409  -3.920   7.257  0.00  0.00    +0.010 C 
ATOM     14  C   LIG    1        2.274  -3.137   8.565  0.00  0.00    +0.010 C 
ATOM     15  C   LIG    1        0.999  -2.292   8.523  0.00  0.00    +0.010 C 
ATOM     16  C   LIG    1        1.072  -1.315   7.348  0.00  0.00    +0.020 C 
ENDBRANCH  10  11
ENDBRANCH   9  10
ENDBRANCH   1   9
TORSDOF 6
ENDMDL
MODEL      293
REMARK  Name = ZINC001208119524
REMARK                            x       y       z     vdW  Elec       q    Type
REMARK                         _______ _______ _______ _____ _____    ______ ____
ROOT
ATOM      1  C   LIG    1       -4.242  -6.159   0.009  0.00  0.00    +0.060 C 
ATOM      2  C   LIG    1       -4.875  -6.828   0.941  0.00  0.00    -0.120 C 
ENDROOT
BRANCH   1   3
ATOM      3  C   LIG    1       -4.263  -4.652   0.018  0.00  0.00    +0.060 C 
BRANCH   3   4
ATOM      4  C   LIG    1       -2.827  -4.123   0.007  0.00  0.00    +0.010 C 
BRANCH   4   5
ATOM      5  C   LIG    1       -2.848  -2.593   0.015  0.00  0.00    +0.010 C 
BRANCH   5   6
ATOM      6  C   LIG    1       -1.413  -2.063   0.004  0.00  0.00    +0.000 C 
BRANCH   6   7
ATOM      7  C   LIG    1       -1.433  -0.534   0.013  0.00  0.00    +0.000 C 
BRANCH   7   9
ATOM      8  C   LIG    1       -0.019   1.526   0.010  0.00  0.00    +0.000 C 
ATOM      9  C   LIG    1        0.002  -0.004   0.002  0.00  0.00    -0.010 C 
ENDBRANCH   7   9
ENDBRANCH   6   7
ENDBRANCH   5   6
ENDBRANCH   4   5
ENDBRANCH   3   4
ENDBRANCH   1   3
BRANCH   2  10
ATOM     10  C   LIG    1       -4.855  -8.335   0.933  0.00  0.00    +0.300 C 
BRANCH  10  11
ATOM     11  N   LIG    1       -4.362  -8.825   2.227  0.00  0.00    -0.410 N 
ATOM     12  C   LIG    1       -5.418  -8.942   3.250  0.00  0.00    +0.280 C 
ATOM     13  C   LIG    1       -4.732 -10.229   3.730  0.00  0.00    +0.090 C 
ATOM     14  C   LIG    1       -4.220 -10.292   2.283  0.00  0.00    +0.290 C 
ATOM     15  H   LIG    1       -3.544  -8.330   2.550  0.00  0.00    +0.440 HD
ENDBRANCH  10  11
ENDBRANCH   2  10
TORSDOF 8
ENDMDL
MODEL      294
REMARK  Name = ZINC000649383395
REMARK                            x       y       z     vdW  Elec       q    Type
REMARK                         _______ _______ _______ _____ _____    ______ ____
ROOT
ATOM      1  N   LIG    1       -3.898  -4.112  -1.888  0.00  0.00    -0.380 N 
ATOM      2  H   LIG    1       -4.097  -4.210  -0.903  0.00  0.00    +0.420 HD
ENDROOT
BRANCH   1   3
ATOM      3  C   LIG    1       -3.705  -5.441  -2.483  0.00  0.00    +0.150 C 
ATOM      4  C   LIG    1       -2.828  -6.375  -1.634  0.00  0.00    +0.050 C 
ATOM      5  C   LIG    1       -3.802  -7.504  -2.011  0.00  0.00    +0.060 C 
ATOM      6  C   LIG    1       -4.866  -6.412  -2.210  0.00  0.00    +0.060 C 
ENDBRANCH   1   3
BRANCH   1   7
ATOM      7  C   LIG    1       -5.022  -3.437  -2.549  0.00  0.00    +0.160 C 
ATOM      8  C   LIG    1       -6.320  -4.188  -2.243  0.00  0.00    +0.080 C 
ATOM      9  C   LIG    1       -4.788  -3.420  -4.061  0.00  0.00    +0.080 C 
ENDBRANCH   1   7
BRANCH   1  10
ATOM     10  C   LIG    1       -2.676  -3.315  -2.064  0.00  0.00    +0.250 C 
BRANCH  10  11
ATOM     11  C   LIG    1       -2.849  -1.959  -1.377  0.00  0.00    +0.030 C 
BRANCH  11  12
ATOM     12  C   LIG    1       -1.535  -1.179  -1.450  0.00  0.00    +0.040 C 
BRANCH  12  13
ATOM     13  C   LIG    1       -1.708   0.177  -0.763  0.00  0.00    +0.050 C 
BRANCH  13  15
ATOM     14  C   LIG    1       -0.392   2.148  -1.353  0.00  0.00    +0.020 C 
ATOM     15  C   LIG    1       -0.413   0.945  -0.835  0.00  0.00    -0.060 C 
ENDBRANCH  13  15
ENDBRANCH  12  13
ENDBRANCH  11  12
ENDBRANCH  10  11
ENDBRANCH   1  10
TORSDOF 7
ENDMDL
MODEL      295
REMARK  Name = ZINC001172501016
REMARK                            x       y       z     vdW  Elec       q    Type
REMARK                         _______ _______ _______ _____ _____    ______ ____
ROOT
ATOM      1  C   LIG    1       -4.242  -6.182   0.009  0.00  0.00    +0.240 C 
ENDROOT
BRANCH   1   2
ATOM      2  N   LIG    1       -3.663  -6.656  -1.251  0.00  0.00    -0.660 N 
ATOM      3  H   LIG    1       -3.700  -6.096  -2.042  0.00  0.00    +0.420 HD
ATOM      4  C   LIG    1       -3.071  -7.890  -1.311  0.00  0.00    +0.740 C 
BRANCH   4   5
ATOM      5  N   LIG    1       -2.561  -8.308  -2.424  0.00  0.00    -0.740 N 
ATOM      6  H   LIG    1       -2.597  -7.748  -3.215  0.00  0.00    +0.430 HD
ATOM      7  H   LIG    1       -2.142  -9.182  -2.467  0.00  0.00    +0.450 HD
ENDBRANCH   4   5
ENDBRANCH   1   2
BRANCH   1   8
ATOM      8  C   LIG    1       -4.263  -4.652   0.018  0.00  0.00    +0.040 C 
BRANCH   8   9
ATOM      9  C   LIG    1       -2.827  -4.123   0.007  0.00  0.00    +0.010 C 
BRANCH   9  10
ATOM     10  C   LIG    1       -2.848  -2.593   0.015  0.00  0.00    +0.010 C 
BRANCH  10  11
ATOM     11  C   LIG    1       -1.413  -2.063   0.004  0.00  0.00    +0.000 C 
BRANCH  11  12
ATOM     12  C   LIG    1       -1.433  -0.534   0.013  0.00  0.00    +0.000 C 
BRANCH  12  14
ATOM     13  C   LIG    1       -0.019   1.526   0.010  0.00  0.00    +0.010 C 
ATOM     14  C   LIG    1        0.002  -0.004   0.002  0.00  0.00    -0.010 C 
ENDBRANCH  12  14
ENDBRANCH  11  12
ENDBRANCH  10  11
ENDBRANCH   9  10
ENDBRANCH   8   9
ENDBRANCH   1   8
BRANCH   1  15
ATOM     15  C   LIG    1       -5.670  -6.713   0.146  0.00  0.00    +0.030 C 
BRANCH  15  16
ATOM     16  C   LIG    1       -5.639  -8.238   0.263  0.00  0.00    -0.010 C 
ATOM     17  C   LIG    1       -7.068  -8.768   0.399  0.00  0.00    +0.020 C 
ENDBRANCH  15  16
ENDBRANCH   1  15
TORSDOF 10
ENDMDL
MODEL      296
REMARK  Name = ZINC001172504392
REMARK                            x       y       z     vdW  Elec       q    Type
REMARK                         _______ _______ _______ _____ _____    ______ ____
ROOT
ATOM      1  C   LIG    1        3.024  -6.621   4.935  0.00  0.00    +0.240 C 
ENDROOT
BRANCH   1   2
ATOM      2  N   LIG    1        2.274  -6.250   6.137  0.00  0.00    -0.660 N 
ATOM      3  H   LIG    1        1.317  -6.097   6.084  0.00  0.00    +0.420 HD
ATOM      4  C   LIG    1        2.923  -6.119   7.337  0.00  0.00    +0.740 C 
BRANCH   4   5
ATOM      5  N   LIG    1        2.261  -5.792   8.398  0.00  0.00    -0.740 N 
ATOM      6  H   LIG    1        2.720  -5.699   9.247  0.00  0.00    +0.450 HD
ATOM      7  H   LIG    1        1.304  -5.639   8.345  0.00  0.00    +0.430 HD
ENDBRANCH   4   5
ENDBRANCH   1   2
BRANCH   1   8
ATOM      8  C   LIG    1        3.154  -8.144   4.864  0.00  0.00    +0.030 C 
ATOM      9  C   LIG    1        4.001  -8.638   6.038  0.00  0.00    +0.020 C 
ENDBRANCH   1   8
BRANCH   1  10
ATOM     10  C   LIG    1        2.284  -6.114   3.695  0.00  0.00    +0.040 C 
BRANCH  10  11
ATOM     11  C   LIG    1        2.264  -4.584   3.704  0.00  0.00    +0.010 C 
BRANCH  11  12
ATOM     12  C   LIG    1        1.524  -4.077   2.464  0.00  0.00    +0.010 C 
BRANCH  12  13
ATOM     13  C   LIG    1        1.503  -2.548   2.473  0.00  0.00    +0.000 C 
BRANCH  13  14
ATOM     14  C   LIG    1        0.763  -2.041   1.233  0.00  0.00    +0.000 C 
BRANCH  14  15
ATOM     15  C   LIG    1        0.742  -0.511   1.242  0.00  0.00    +0.000 C 
BRANCH  15  17
ATOM     16  C   LIG    1       -0.019   1.526   0.010  0.00  0.00    +0.000 C 
ATOM     17  C   LIG    1        0.002  -0.004   0.002  0.00  0.00    -0.010 C 
ENDBRANCH  15  17
ENDBRANCH  14  15
ENDBRANCH  13  14
ENDBRANCH  12  13
ENDBRANCH  11  12
ENDBRANCH  10  11
ENDBRANCH   1  10
TORSDOF 10
ENDMDL
MODEL      297
REMARK  Name = ZINC000308508758
REMARK                            x       y       z     vdW  Elec       q    Type
REMARK                         _______ _______ _______ _____ _____    ______ ____
ROOT
ATOM      1  N   LIG    1       -3.921  -4.241  -2.347  0.00  0.00    -0.510 N 
ATOM      2  H   LIG    1       -4.696  -3.598  -2.419  0.00  0.00    +0.430 HD
ATOM      3  H   LIG    1       -3.996  -4.763  -1.486  0.00  0.00    +0.430 HD
ENDROOT
BRANCH   1   4
ATOM      4  C   LIG    1       -2.659  -3.489  -2.355  0.00  0.00    +0.250 C 
BRANCH   4   5
ATOM      5  C   LIG    1       -2.633  -2.524  -1.168  0.00  0.00    +0.030 C 
BRANCH   5   6
ATOM      6  C   LIG    1       -1.319  -1.741  -1.176  0.00  0.00    +0.050 C 
BRANCH   6   7
ATOM      7  C   LIG    1       -1.293  -0.775   0.010  0.00  0.00    +0.060 C 
BRANCH   7   9
ATOM      8  C   LIG    1       -0.016   1.306   0.009  0.00  0.00    +0.020 C 
ATOM      9  C   LIG    1        0.002  -0.004   0.002  0.00  0.00    -0.060 C 
ENDBRANCH   7   9
ENDBRANCH   6   7
ENDBRANCH   5   6
ENDBRANCH   4   5
ENDBRANCH   1   4
BRANCH   1  10
ATOM     10  C   LIG    1       -3.946  -5.168  -3.486  0.00  0.00    +0.260 C 
BRANCH  10  11
ATOM     11  C   LIG    1       -5.261  -5.951  -3.478  0.00  0.00    -0.010 C 
ATOM     12  C   LIG    1       -5.318  -6.838  -2.233  0.00  0.00    +0.050 C 
BRANCH  11  13
ATOM     13  C   LIG    1       -5.342  -6.825  -4.731  0.00  0.00    -0.060 C 
ATOM     14  C   LIG    1       -5.285  -5.937  -5.976  0.00  0.00    +0.020 C 
ATOM     15  C   LIG    1       -6.656  -7.608  -4.723  0.00  0.00    +0.040 C 
ATOM     16  C   LIG    1       -4.166  -7.803  -4.747  0.00  0.00    +0.030 C 
ENDBRANCH  11  13
ENDBRANCH  10  11
ENDBRANCH   1  10
TORSDOF 8
ENDMDL
MODEL      298
REMARK  Name = ZINC000308508757
REMARK                            x       y       z     vdW  Elec       q    Type
REMARK                         _______ _______ _______ _____ _____    ______ ____
ROOT
ATOM      1  N   LIG    1       -3.921  -4.241  -2.347  0.00  0.00    -0.510 N 
ATOM      2  H   LIG    1       -4.696  -3.598  -2.419  0.00  0.00    +0.430 HD
ATOM      3  H   LIG    1       -3.996  -4.763  -1.486  0.00  0.00    +0.430 HD
ENDROOT
BRANCH   1   4
ATOM      4  C   LIG    1       -2.659  -3.489  -2.355  0.00  0.00    +0.250 C 
BRANCH   4   5
ATOM      5  C   LIG    1       -2.633  -2.524  -1.168  0.00  0.00    +0.030 C 
BRANCH   5   6
ATOM      6  C   LIG    1       -1.319  -1.741  -1.176  0.00  0.00    +0.050 C 
BRANCH   6   7
ATOM      7  C   LIG    1       -1.293  -0.775   0.010  0.00  0.00    +0.060 C 
BRANCH   7   9
ATOM      8  C   LIG    1       -0.016   1.306   0.009  0.00  0.00    +0.020 C 
ATOM      9  C   LIG    1        0.002  -0.004   0.002  0.00  0.00    -0.060 C 
ENDBRANCH   7   9
ENDBRANCH   6   7
ENDBRANCH   5   6
ENDBRANCH   4   5
ENDBRANCH   1   4
BRANCH   1  10
ATOM     10  C   LIG    1       -3.946  -5.168  -3.486  0.00  0.00    +0.260 C 
BRANCH  10  11
ATOM     11  C   LIG    1       -5.261  -5.951  -3.478  0.00  0.00    -0.010 C 
ATOM     12  C   LIG    1       -6.428  -4.990  -3.712  0.00  0.00    +0.050 C 
BRANCH  11  13
ATOM     13  C   LIG    1       -5.235  -7.003  -4.589  0.00  0.00    -0.060 C 
ATOM     14  C   LIG    1       -5.062  -6.310  -5.942  0.00  0.00    +0.030 C 
ATOM     15  C   LIG    1       -6.550  -7.785  -4.580  0.00  0.00    +0.040 C 
ATOM     16  C   LIG    1       -4.068  -7.963  -4.354  0.00  0.00    +0.020 C 
ENDBRANCH  11  13
ENDBRANCH  10  11
ENDBRANCH   1  10
TORSDOF 8
ENDMDL
MODEL      299
REMARK  Name = ZINC001172504390
REMARK                            x       y       z     vdW  Elec       q    Type
REMARK                         _______ _______ _______ _____ _____    ______ ____
ROOT
ATOM      1  C   LIG    1        3.024  -6.621   4.935  0.00  0.00    +0.240 C 
ENDROOT
BRANCH   1   2
ATOM      2  N   LIG    1        4.430  -6.214   4.865  0.00  0.00    -0.660 N 
ATOM      3  H   LIG    1        4.842  -6.038   4.005  0.00  0.00    +0.420 HD
ATOM      4  C   LIG    1        5.163  -6.081   6.015  0.00  0.00    +0.740 C 
BRANCH   4   5
ATOM      5  N   LIG    1        6.403  -5.722   5.953  0.00  0.00    -0.740 N 
ATOM      6  H   LIG    1        6.922  -5.628   6.767  0.00  0.00    +0.450 HD
ATOM      7  H   LIG    1        6.815  -5.546   5.093  0.00  0.00    +0.430 HD
ENDBRANCH   4   5
ENDBRANCH   1   2
BRANCH   1   8
ATOM      8  C   LIG    1        2.938  -8.147   4.992  0.00  0.00    +0.030 C 
ATOM      9  C   LIG    1        3.569  -8.646   6.294  0.00  0.00    +0.020 C 
ENDBRANCH   1   8
BRANCH   1  10
ATOM     10  C   LIG    1        2.284  -6.114   3.695  0.00  0.00    +0.040 C 
BRANCH  10  11
ATOM     11  C   LIG    1        2.264  -4.584   3.704  0.00  0.00    +0.010 C 
BRANCH  11  12
ATOM     12  C   LIG    1        1.524  -4.077   2.464  0.00  0.00    +0.010 C 
BRANCH  12  13
ATOM     13  C   LIG    1        1.503  -2.548   2.473  0.00  0.00    +0.000 C 
BRANCH  13  14
ATOM     14  C   LIG    1        0.763  -2.041   1.233  0.00  0.00    +0.000 C 
BRANCH  14  15
ATOM     15  C   LIG    1        0.742  -0.511   1.242  0.00  0.00    +0.000 C 
BRANCH  15  17
ATOM     16  C   LIG    1       -0.019   1.526   0.010  0.00  0.00    +0.000 C 
ATOM     17  C   LIG    1        0.002  -0.004   0.002  0.00  0.00    -0.010 C 
ENDBRANCH  15  17
ENDBRANCH  14  15
ENDBRANCH  13  14
ENDBRANCH  12  13
ENDBRANCH  11  12
ENDBRANCH  10  11
ENDBRANCH   1  10
TORSDOF 10
ENDMDL
MODEL      300
REMARK  Name = ZINC000308599997
REMARK                            x       y       z     vdW  Elec       q    Type
REMARK                         _______ _______ _______ _____ _____    ______ ____
ROOT
ATOM      1  N   LIG    1       -0.273  -2.770  -1.235  0.00  0.00    -0.510 N 
ATOM      2  H   LIG    1       -0.475  -3.410  -0.481  0.00  0.00    +0.420 HD
ATOM      3  H   LIG    1        0.619  -2.327  -1.071  0.00  0.00    +0.420 HD
ENDROOT
BRANCH   1   4
ATOM      4  C   LIG    1       -1.324  -1.746  -1.304  0.00  0.00    +0.170 C 
BRANCH   4   5
ATOM      5  C   LIG    1       -2.691  -2.425  -1.405  0.00  0.00    +0.030 C 
ATOM      6  C   LIG    1       -3.773  -1.363  -1.617  0.00  0.00    +0.060 C 
ENDBRANCH   4   5
BRANCH   4   7
ATOM      7  C   LIG    1       -1.276  -0.882  -0.042  0.00  0.00    +0.110 C 
BRANCH   7   9
ATOM      8  C   LIG    1        0.013   1.187   0.110  0.00  0.00    +0.090 C 
ATOM      9  C   LIG    1        0.023  -0.118  -0.005  0.00  0.00    -0.110 C 
ENDBRANCH   7   9
ENDBRANCH   4   7
ENDBRANCH   1   4
BRANCH   1  10
ATOM     10  C   LIG    1       -0.226  -3.509  -2.504  0.00  0.00    +0.250 C 
BRANCH  10  11
ATOM     11  C   LIG    1        0.956  -4.481  -2.485  0.00  0.00    -0.020 C 
ATOM     12  C   LIG    1        2.265  -3.691  -2.428  0.00  0.00    +0.050 C 
BRANCH  11  13
ATOM     13  C   LIG    1        0.932  -5.338  -3.752  0.00  0.00    -0.060 C 
ATOM     14  C   LIG    1       -0.377  -6.128  -3.809  0.00  0.00    +0.030 C 
ATOM     15  C   LIG    1        2.113  -6.310  -3.733  0.00  0.00    +0.040 C 
ATOM     16  C   LIG    1        1.036  -4.433  -4.982  0.00  0.00    +0.030 C 
ENDBRANCH  11  13
ENDBRANCH  10  11
ENDBRANCH   1  10
TORSDOF 7
ENDMDL
MODEL      301
REMARK  Name = ZINC000308599995
REMARK                            x       y       z     vdW  Elec       q    Type
REMARK                         _______ _______ _______ _____ _____    ______ ____
ROOT
ATOM      1  N   LIG    1       -0.166  -2.746  -1.187  0.00  0.00    -0.510 N 
ATOM      2  H   LIG    1       -0.361  -3.459  -0.500  0.00  0.00    +0.420 HD
ATOM      3  H   LIG    1        0.695  -2.277  -0.950  0.00  0.00    +0.430 HD
ENDROOT
BRANCH   1   4
ATOM      4  C   LIG    1       -1.265  -1.772  -1.209  0.00  0.00    +0.170 C 
BRANCH   4   5
ATOM      5  C   LIG    1       -2.591  -2.504  -1.424  0.00  0.00    +0.030 C 
ATOM      6  C   LIG    1       -3.716  -1.481  -1.595  0.00  0.00    +0.060 C 
ENDBRANCH   4   5
BRANCH   4   7
ATOM      7  C   LIG    1       -1.306  -1.021   0.123  0.00  0.00    +0.100 C 
BRANCH   7   9
ATOM      8  C   LIG    1       -0.132   1.086   0.504  0.00  0.00    +0.090 C 
ATOM      9  C   LIG    1       -0.051  -0.202   0.278  0.00  0.00    -0.110 C 
ENDBRANCH   7   9
ENDBRANCH   4   7
ENDBRANCH   1   4
BRANCH   1  10
ATOM     10  C   LIG    1       -0.035  -3.367  -2.513  0.00  0.00    +0.260 C 
BRANCH  10  11
ATOM     11  C   LIG    1        1.194  -4.278  -2.530  0.00  0.00    -0.020 C 
ATOM     12  C   LIG    1        0.980  -5.441  -1.558  0.00  0.00    +0.050 C 
BRANCH  11  13
ATOM     13  C   LIG    1        1.401  -4.827  -3.943  0.00  0.00    -0.060 C 
ATOM     14  C   LIG    1        0.167  -5.626  -4.367  0.00  0.00    +0.030 C 
ATOM     15  C   LIG    1        2.630  -5.739  -3.961  0.00  0.00    +0.040 C 
ATOM     16  C   LIG    1        1.615  -3.665  -4.915  0.00  0.00    +0.020 C 
ENDBRANCH  11  13
ENDBRANCH  10  11
ENDBRANCH   1  10
TORSDOF 7
ENDMDL
MODEL      302
REMARK  Name = ZINC000308599996
REMARK                            x       y       z     vdW  Elec       q    Type
REMARK                         _______ _______ _______ _____ _____    ______ ____
ROOT
ATOM      1  N   LIG    1       -1.436  -0.947  -2.372  0.00  0.00    -0.510 N 
ATOM      2  H   LIG    1       -0.677  -0.302  -2.532  0.00  0.00    +0.430 HD
ATOM      3  H   LIG    1       -2.276  -0.431  -2.155  0.00  0.00    +0.420 HD
ENDROOT
BRANCH   1   4
ATOM      4  C   LIG    1       -1.099  -1.829  -1.246  0.00  0.00    +0.170 C 
BRANCH   4   5
ATOM      5  C   LIG    1       -2.306  -2.706  -0.906  0.00  0.00    +0.030 C 
ATOM      6  C   LIG    1       -1.929  -3.681   0.210  0.00  0.00    +0.060 C 
ENDBRANCH   4   5
BRANCH   4   7
ATOM      7  C   LIG    1       -0.725  -0.982  -0.029  0.00  0.00    +0.090 C 
BRANCH   7   9
ATOM      8  C   LIG    1        0.553   1.093  -0.188  0.00  0.00    +0.060 C 
ATOM      9  C   LIG    1        0.536  -0.210  -0.322  0.00  0.00    -0.090 C 
ENDBRANCH   7   9
ENDBRANCH   4   7
ENDBRANCH   1   4
BRANCH   1  10
ATOM     10  C   LIG    1       -1.656  -1.755  -3.579  0.00  0.00    +0.260 C 
BRANCH  10  11
ATOM     11  C   LIG    1       -1.873  -0.831  -4.778  0.00  0.00    -0.020 C 
ATOM     12  C   LIG    1       -3.166  -0.036  -4.582  0.00  0.00    +0.050 C 
BRANCH  11  13
ATOM     13  C   LIG    1       -1.978  -1.668  -6.055  0.00  0.00    -0.060 C 
ATOM     14  C   LIG    1       -0.685  -2.462  -6.251  0.00  0.00    +0.020 C 
ATOM     15  C   LIG    1       -2.195  -0.744  -7.255  0.00  0.00    +0.040 C 
ATOM     16  C   LIG    1       -3.157  -2.635  -5.935  0.00  0.00    +0.030 C 
ENDBRANCH  11  13
ENDBRANCH  10  11
ENDBRANCH   1  10
TORSDOF 7
ENDMDL
MODEL      303
REMARK  Name = ZINC000308599998
REMARK                            x       y       z     vdW  Elec       q    Type
REMARK                         _______ _______ _______ _____ _____    ______ ____
ROOT
ATOM      1  N   LIG    1       -1.433  -0.873  -2.334  0.00  0.00    -0.510 N 
ATOM      2  H   LIG    1       -0.603  -0.301  -2.379  0.00  0.00    +0.430 HD
ATOM      3  H   LIG    1       -2.244  -0.281  -2.228  0.00  0.00    +0.420 HD
ENDROOT
BRANCH   1   4
ATOM      4  C   LIG    1       -1.339  -1.785  -1.186  0.00  0.00    +0.170 C 
BRANCH   4   5
ATOM      5  C   LIG    1       -2.660  -2.539  -1.025  0.00  0.00    +0.030 C 
ATOM      6  C   LIG    1       -2.537  -3.542   0.124  0.00  0.00    +0.060 C 
ENDBRANCH   4   5
BRANCH   4   7
ATOM      7  C   LIG    1       -1.053  -0.979   0.083  0.00  0.00    +0.090 C 
BRANCH   7   9
ATOM      8  C   LIG    1        0.429   0.961   0.126  0.00  0.00    +0.060 C 
ATOM      9  C   LIG    1        0.304  -0.334  -0.027  0.00  0.00    -0.090 C 
ENDBRANCH   7   9
ENDBRANCH   4   7
ENDBRANCH   1   4
BRANCH   1  10
ATOM     10  C   LIG    1       -1.557  -1.655  -3.572  0.00  0.00    +0.250 C 
BRANCH  10  11
ATOM     11  C   LIG    1       -1.753  -0.707  -4.756  0.00  0.00    -0.020 C 
ATOM     12  C   LIG    1       -0.496   0.147  -4.940  0.00  0.00    +0.050 C 
BRANCH  11  13
ATOM     13  C   LIG    1       -2.005  -1.522  -6.026  0.00  0.00    -0.060 C 
ATOM     14  C   LIG    1       -0.805  -2.433  -6.295  0.00  0.00    +0.030 C 
ATOM     15  C   LIG    1       -2.201  -0.574  -7.211  0.00  0.00    +0.040 C 
ATOM     16  C   LIG    1       -3.262  -2.376  -5.842  0.00  0.00    +0.030 C 
ENDBRANCH  11  13
ENDBRANCH  10  11
ENDBRANCH   1  10
TORSDOF 7
ENDMDL
MODEL      304
REMARK  Name = ZINC001172501021
REMARK                            x       y       z     vdW  Elec       q    Type
REMARK                         _______ _______ _______ _____ _____    ______ ____
ROOT
ATOM      1  C   LIG    1       -4.242  -6.182   0.009  0.00  0.00    +0.240 C 
ENDROOT
BRANCH   1   2
ATOM      2  N   LIG    1       -3.640  -6.669   1.253  0.00  0.00    -0.660 N 
ATOM      3  H   LIG    1       -3.661  -6.118   2.050  0.00  0.00    +0.420 HD
ATOM      4  C   LIG    1       -3.046  -7.904   1.289  0.00  0.00    +0.740 C 
BRANCH   4   5
ATOM      5  N   LIG    1       -2.515  -8.334   2.387  0.00  0.00    -0.740 N 
ATOM      6  H   LIG    1       -2.536  -7.782   3.184  0.00  0.00    +0.430 HD
ATOM      7  H   LIG    1       -2.095  -9.208   2.413  0.00  0.00    +0.450 HD
ENDBRANCH   4   5
ENDBRANCH   1   2
BRANCH   1   8
ATOM      8  C   LIG    1       -4.263  -4.652   0.018  0.00  0.00    +0.040 C 
BRANCH   8   9
ATOM      9  C   LIG    1       -2.827  -4.123   0.007  0.00  0.00    +0.010 C 
BRANCH   9  10
ATOM     10  C   LIG    1       -2.848  -2.593   0.015  0.00  0.00    +0.010 C 
BRANCH  10  11
ATOM     11  C   LIG    1       -1.413  -2.063   0.004  0.00  0.00    +0.000 C 
BRANCH  11  12
ATOM     12  C   LIG    1       -1.433  -0.534   0.013  0.00  0.00    +0.000 C 
BRANCH  12  14
ATOM     13  C   LIG    1       -0.019   1.526   0.010  0.00  0.00    +0.010 C 
ATOM     14  C   LIG    1        0.002  -0.004   0.002  0.00  0.00    -0.010 C 
ENDBRANCH  12  14
ENDBRANCH  11  12
ENDBRANCH  10  11
ENDBRANCH   9  10
ENDBRANCH   8   9
ENDBRANCH   1   8
BRANCH   1  15
ATOM     15  C   LIG    1       -5.673  -6.711  -0.105  0.00  0.00    +0.030 C 
BRANCH  15  16
ATOM     16  C   LIG    1       -5.644  -8.235  -0.239  0.00  0.00    -0.010 C 
ATOM     17  C   LIG    1       -7.075  -8.764  -0.354  0.00  0.00    +0.020 C 
ENDBRANCH  15  16
ENDBRANCH   1  15
TORSDOF 10
ENDMDL
MODEL      305
REMARK  Name = ZINC000230649272
REMARK                            x       y       z     vdW  Elec       q    Type
REMARK                         _______ _______ _______ _____ _____    ______ ____
ROOT
ATOM      1  C   LIG    1        1.702  -2.447  -1.293  0.00  0.00    +0.170 C 
ATOM      2  C   LIG    1        1.320  -3.399  -0.157  0.00  0.00    +0.090 C 
ENDROOT
BRANCH   1   3
ATOM      3  C   LIG    1        1.471  -3.140  -2.638  0.00  0.00    -0.010 C 
ATOM      4  C   LIG    1        1.925  -2.240  -3.755  0.00  0.00    +0.000 C 
ATOM      5  C   LIG    1        1.061  -2.390  -5.021  0.00  0.00    +0.010 C 
ATOM      6  C   LIG    1        0.711  -3.857  -5.335  0.00  0.00    +0.010 C 
ATOM      7  C   LIG    1        1.878  -4.784  -5.130  0.00  0.00    +0.020 C 
ATOM      8  C   LIG    1        1.794  -5.369  -3.705  0.00  0.00    +0.000 C 
ATOM      9  C   LIG    1        2.292  -4.445  -2.696  0.00  0.00    +0.040 C 
ENDBRANCH   1   3
BRANCH   1  10
ATOM     10  N   LIG    1        0.873  -1.237  -1.218  0.00  0.00    -0.510 N 
ATOM     11  H   LIG    1        0.801  -0.821  -2.134  0.00  0.00    +0.420 HD
ATOM     12  H   LIG    1       -0.049  -1.480  -0.886  0.00  0.00    +0.420 HD
BRANCH  10  13
ATOM     13  C   LIG    1        1.489  -0.279  -0.291  0.00  0.00    +0.210 C 
ATOM     14  C   LIG    1        1.451  -0.846   1.130  0.00  0.00    +0.090 C 
BRANCH  13  16
ATOM     15  C   LIG    1        1.311   2.107  -0.780  0.00  0.00    +0.130 C 
ATOM     16  C   LIG    1        0.729   1.022  -0.333  0.00  0.00    -0.090 C 
ENDBRANCH  13  16
ENDBRANCH  10  13
ENDBRANCH   1  10
TORSDOF 4
ENDMDL
MODEL      306
REMARK  Name = ZINC000230649409
REMARK                            x       y       z     vdW  Elec       q    Type
REMARK                         _______ _______ _______ _____ _____    ______ ____
ROOT
ATOM      1  C   LIG    1        2.777  -2.102  -1.344  0.00  0.00    +0.160 C 
ATOM      2  C   LIG    1        3.846  -1.010  -1.406  0.00  0.00    +0.080 C 
ENDROOT
BRANCH   1   3
ATOM      3  C   LIG    1        2.868  -2.977  -2.595  0.00  0.00    -0.010 C 
ATOM      4  C   LIG    1        2.793  -2.111  -3.824  0.00  0.00    +0.000 C 
ATOM      5  C   LIG    1        2.070  -2.808  -4.993  0.00  0.00    +0.010 C 
ATOM      6  C   LIG    1        2.465  -4.290  -5.142  0.00  0.00    +0.010 C 
ATOM      7  C   LIG    1        3.941  -4.514  -4.955  0.00  0.00    +0.020 C 
ATOM      8  C   LIG    1        4.196  -4.891  -3.481  0.00  0.00    +0.000 C 
ATOM      9  C   LIG    1        4.216  -3.728  -2.606  0.00  0.00    +0.040 C 
ENDBRANCH   1   3
BRANCH   1  10
ATOM     10  N   LIG    1        1.447  -1.483  -1.275  0.00  0.00    -0.510 N 
ATOM     11  H   LIG    1        1.330  -0.850  -2.052  0.00  0.00    +0.420 HD
ATOM     12  H   LIG    1        0.739  -2.201  -1.317  0.00  0.00    +0.430 HD
BRANCH  10  13
ATOM     13  C   LIG    1        1.317  -0.740  -0.015  0.00  0.00    +0.200 C 
ATOM     14  C   LIG    1        1.370  -1.717   1.161  0.00  0.00    +0.090 C 
BRANCH  13  16
ATOM     15  C   LIG    1       -0.016   1.306   0.009  0.00  0.00    +0.130 C 
ATOM     16  C   LIG    1        0.002  -0.004   0.002  0.00  0.00    -0.090 C 
ENDBRANCH  13  16
ENDBRANCH  10  13
ENDBRANCH   1  10
TORSDOF 4
ENDMDL
MODEL      307
REMARK  Name = ZINC000168047145
REMARK                            x       y       z     vdW  Elec       q    Type
REMARK                         _______ _______ _______ _____ _____    ______ ____
ROOT
ATOM      1  N   LIG    1        2.997  -1.823   1.401  0.00  0.00    -0.510 N 
ATOM      2  H   LIG    1        3.707  -1.233   0.995  0.00  0.00    +0.420 HD
ATOM      3  H   LIG    1        2.905  -2.665   0.851  0.00  0.00    +0.420 HD
ENDROOT
BRANCH   1   4
ATOM      4  C   LIG    1        1.715  -1.106   1.417  0.00  0.00    +0.250 C 
BRANCH   4   5
ATOM      5  C   LIG    1        1.317  -0.740  -0.015  0.00  0.00    +0.070 C 
BRANCH   5   7
ATOM      6  C   LIG    1       -0.016   1.306   0.009  0.00  0.00    +0.050 C 
ATOM      7  C   LIG    1        0.002  -0.004   0.002  0.00  0.00    -0.150 C 
ATOM      8  C   LIG    1       -1.293  -0.775   0.010  0.00  0.00    +0.070 C 
ENDBRANCH   5   7
ENDBRANCH   4   5
ENDBRANCH   1   4
BRANCH   1   9
ATOM      9  C   LIG    1        3.378  -2.175   2.775  0.00  0.00    +0.060 C 
BRANCH   9  10
ATOM     10  C   LIG    1        2.301  -3.070   3.390  0.00  0.00    +0.060 C 
ATOM     11  C   LIG    1        2.161  -4.346   2.557  0.00  0.00    +0.030 C 
ENDBRANCH   9  10
BRANCH   9  12
ATOM     12  C   LIG    1        3.518  -0.899   3.608  0.00  0.00    +0.060 C 
ATOM     13  C   LIG    1        4.504   0.050   2.925  0.00  0.00    +0.040 C 
ENDBRANCH   9  12
BRANCH   9  14
ATOM     14  C   LIG    1        4.713  -2.922   2.758  0.00  0.00    +0.040 C 
ATOM     15  C   LIG    1        5.111  -3.288   4.190  0.00  0.00    +0.060 C 
ENDBRANCH   9  14
ENDBRANCH   1   9
TORSDOF 7
ENDMDL
MODEL      308
REMARK  Name = ZINC000230649277
REMARK                            x       y       z     vdW  Elec       q    Type
REMARK                         _______ _______ _______ _____ _____    ______ ____
ROOT
ATOM      1  C   LIG    1        2.747  -2.214   1.225  0.00  0.00    +0.170 C 
ATOM      2  C   LIG    1        1.425  -1.449   1.134  0.00  0.00    +0.090 C 
ENDROOT
BRANCH   1   3
ATOM      3  C   LIG    1        2.684  -3.203   2.391  0.00  0.00    +0.010 C 
ATOM      4  C   LIG    1        1.668  -4.272   2.093  0.00  0.00    +0.000 C 
ATOM      5  C   LIG    1        0.940  -4.763   3.358  0.00  0.00    +0.030 C 
ATOM      6  C   LIG    1        1.886  -4.941   4.561  0.00  0.00    +0.000 C 
ATOM      7  C   LIG    1        3.194  -5.577   4.175  0.00  0.00    +0.020 C 
ATOM      8  C   LIG    1        4.219  -4.458   3.900  0.00  0.00    +0.010 C 
ATOM      9  C   LIG    1        4.061  -3.873   2.576  0.00  0.00    +0.010 C 
ENDBRANCH   1   3
BRANCH   1  10
ATOM     10  N   LIG    1        2.976  -2.947  -0.027  0.00  0.00    -0.510 N 
ATOM     11  H   LIG    1        3.795  -3.528   0.069  0.00  0.00    +0.420 HD
ATOM     12  H   LIG    1        2.174  -3.526  -0.229  0.00  0.00    +0.420 HD
BRANCH  10  13
ATOM     13  C   LIG    1        3.179  -1.991  -1.124  0.00  0.00    +0.200 C 
ATOM     14  C   LIG    1        4.464  -1.198  -0.878  0.00  0.00    +0.090 C 
BRANCH  13  16
ATOM     15  C   LIG    1        2.436  -2.506  -3.392  0.00  0.00    +0.130 C 
ATOM     16  C   LIG    1        3.291  -2.739  -2.427  0.00  0.00    -0.090 C 
ENDBRANCH  13  16
ENDBRANCH  10  13
ENDBRANCH   1  10
TORSDOF 4
ENDMDL
MODEL      309
REMARK  Name = ZINC000230649414
REMARK                            x       y       z     vdW  Elec       q    Type
REMARK                         _______ _______ _______ _____ _____    ______ ____
ROOT
ATOM      1  C   LIG    1        2.775  -2.118   1.290  0.00  0.00    +0.170 C 
ATOM      2  C   LIG    1        3.114  -2.948   0.050  0.00  0.00    +0.090 C 
ENDROOT
BRANCH   1   3
ATOM      3  C   LIG    1        2.910  -2.990   2.540  0.00  0.00    -0.010 C 
ATOM      4  C   LIG    1        2.076  -4.232   2.383  0.00  0.00    +0.000 C 
ATOM      5  C   LIG    1        1.476  -4.712   3.718  0.00  0.00    +0.010 C 
ATOM      6  C   LIG    1        2.474  -4.621   4.889  0.00  0.00    +0.010 C 
ATOM      7  C   LIG    1        3.857  -5.071   4.502  0.00  0.00    +0.020 C 
ATOM      8  C   LIG    1        4.676  -3.832   4.083  0.00  0.00    +0.000 C 
ATOM      9  C   LIG    1        4.383  -3.409   2.722  0.00  0.00    +0.040 C 
ENDBRANCH   1   3
BRANCH   1  10
ATOM     10  N   LIG    1        1.395  -1.623   1.186  0.00  0.00    -0.510 N 
ATOM     11  H   LIG    1        0.771  -2.399   1.023  0.00  0.00    +0.420 HD
ATOM     12  H   LIG    1        1.139  -1.159   2.044  0.00  0.00    +0.430 HD
BRANCH  10  13
ATOM     13  C   LIG    1        1.299  -0.674   0.068  0.00  0.00    +0.200 C 
ATOM     14  C   LIG    1       -0.163  -0.268  -0.131  0.00  0.00    +0.090 C 
BRANCH  13  16
ATOM     15  C   LIG    1        3.113   0.887  -0.414  0.00  0.00    +0.120 C 
ATOM     16  C   LIG    1        2.123   0.549   0.375  0.00  0.00    -0.090 C 
ENDBRANCH  13  16
ENDBRANCH  10  13
ENDBRANCH   1  10
TORSDOF 4
ENDMDL
MODEL      310
REMARK  Name = ZINC000230668537
REMARK                            x       y       z     vdW  Elec       q    Type
REMARK                         _______ _______ _______ _____ _____    ______ ____
ROOT
ATOM      1  N   LIG    1        2.125  -3.650  -0.710  0.00  0.00    -0.510 N 
ATOM      2  H   LIG    1        2.084  -3.334  -1.667  0.00  0.00    +0.430 HD
ATOM      3  H   LIG    1        1.595  -4.503  -0.614  0.00  0.00    +0.420 HD
ENDROOT
BRANCH   1   4
ATOM      4  C   LIG    1        1.559  -2.619   0.170  0.00  0.00    +0.170 C 
ATOM      5  C   LIG    1        1.506  -3.147   1.605  0.00  0.00    +0.090 C 
BRANCH   4   6
ATOM      6  C   LIG    1        0.144  -2.271  -0.297  0.00  0.00    +0.060 C 
BRANCH   6   7
ATOM      7  C   LIG    1        0.209  -1.627  -1.683  0.00  0.00    +0.040 C 
BRANCH   7   9
ATOM      8  C   LIG    1       -1.470  -0.058  -2.506  0.00  0.00    +0.050 C 
ATOM      9  C   LIG    1       -1.184  -1.284  -2.144  0.00  0.00    -0.070 C 
ENDBRANCH   7   9
ENDBRANCH   6   7
ENDBRANCH   4   6
ENDBRANCH   1   4
BRANCH   1  10
ATOM     10  C   LIG    1        3.524  -3.899  -0.336  0.00  0.00    +0.300 C 
BRANCH  10  11
ATOM     11  C   LIG    1        4.147  -4.889  -1.322  0.00  0.00    -0.180 C 
ATOM     12  C   LIG    1        4.963  -6.046  -0.741  0.00  0.00    +0.080 C 
ATOM     13  C   LIG    1        3.583  -6.311  -1.347  0.00  0.00    +0.040 C 
BRANCH  11  14
ATOM     14  C   LIG    1        4.615  -4.291  -2.650  0.00  0.00    +0.050 C 
BRANCH  14  15
ATOM     15  C   LIG    1        5.766  -3.316  -2.394  0.00  0.00    +0.000 C 
ATOM     16  C   LIG    1        6.313  -2.810  -3.730  0.00  0.00    +0.020 C 
ENDBRANCH  14  15
ENDBRANCH  11  14
ENDBRANCH  10  11
ENDBRANCH   1  10
TORSDOF 8
ENDMDL
MODEL      311
REMARK  Name = ZINC000230665761
REMARK                            x       y       z     vdW  Elec       q    Type
REMARK                         _______ _______ _______ _____ _____    ______ ____
ROOT
ATOM      1  N   LIG    1        2.783  -3.301  -0.060  0.00  0.00    -0.510 N 
ATOM      2  H   LIG    1        2.631  -2.729  -0.877  0.00  0.00    +0.420 HD
ATOM      3  H   LIG    1        2.075  -4.019  -0.017  0.00  0.00    +0.420 HD
ENDROOT
BRANCH   1   4
ATOM      4  C   LIG    1        2.705  -2.464   1.145  0.00  0.00    +0.170 C 
ATOM      5  C   LIG    1        2.810  -3.349   2.388  0.00  0.00    +0.090 C 
BRANCH   4   6
ATOM      6  C   LIG    1        1.370  -1.717   1.161  0.00  0.00    +0.070 C 
BRANCH   6   7
ATOM      7  C   LIG    1        1.317  -0.740  -0.015  0.00  0.00    +0.040 C 
BRANCH   7   9
ATOM      8  C   LIG    1       -0.016   1.306   0.009  0.00  0.00    +0.050 C 
ATOM      9  C   LIG    1        0.002  -0.004   0.002  0.00  0.00    -0.070 C 
ENDBRANCH   7   9
ENDBRANCH   6   7
ENDBRANCH   4   6
ENDBRANCH   1   4
BRANCH   1  10
ATOM     10  C   LIG    1        4.110  -3.925  -0.138  0.00  0.00    +0.280 C 
BRANCH  10  11
ATOM     11  C   LIG    1        4.191  -4.796  -1.393  0.00  0.00    -0.120 C 
ATOM     12  C   LIG    1        4.522  -4.008  -2.671  0.00  0.00    +0.040 C 
ATOM     13  C   LIG    1        6.005  -4.250  -2.342  0.00  0.00    +0.010 C 
ATOM     14  C   LIG    1        5.548  -5.498  -1.569  0.00  0.00    +0.070 C 
BRANCH  11  15
ATOM     15  C   LIG    1        2.992  -5.735  -1.543  0.00  0.00    +0.020 C 
ATOM     16  C   LIG    1        3.152  -6.566  -2.817  0.00  0.00    +0.050 C 
ENDBRANCH  11  15
ENDBRANCH  10  11
ENDBRANCH   1  10
TORSDOF 7
ENDMDL
MODEL      312
REMARK  Name = ZINC000230665764
REMARK                            x       y       z     vdW  Elec       q    Type
REMARK                         _______ _______ _______ _____ _____    ______ ____
ROOT
ATOM      1  N   LIG    1        3.800  -1.514   1.380  0.00  0.00    -0.510 N 
ATOM      2  H   LIG    1        3.720  -1.132   2.310  0.00  0.00    +0.420 HD
ATOM      3  H   LIG    1        3.749  -0.767   0.704  0.00  0.00    +0.420 HD
ENDROOT
BRANCH   1   4
ATOM      4  C   LIG    1        2.705  -2.464   1.145  0.00  0.00    +0.170 C 
ATOM      5  C   LIG    1        2.708  -3.528   2.244  0.00  0.00    +0.090 C 
BRANCH   4   6
ATOM      6  C   LIG    1        1.370  -1.717   1.161  0.00  0.00    +0.070 C 
BRANCH   6   7
ATOM      7  C   LIG    1        1.317  -0.740  -0.015  0.00  0.00    +0.050 C 
BRANCH   7   9
ATOM      8  C   LIG    1       -0.016   1.306   0.009  0.00  0.00    +0.040 C 
ATOM      9  C   LIG    1        0.002  -0.004   0.002  0.00  0.00    -0.050 C 
ENDBRANCH   7   9
ENDBRANCH   6   7
ENDBRANCH   4   6
ENDBRANCH   1   4
BRANCH   1  10
ATOM     10  C   LIG    1        5.088  -2.208   1.245  0.00  0.00    +0.280 C 
BRANCH  10  11
ATOM     11  C   LIG    1        6.229  -1.219   1.490  0.00  0.00    -0.120 C 
ATOM     12  C   LIG    1        6.542  -0.995   2.979  0.00  0.00    +0.040 C 
ATOM     13  C   LIG    1        7.519  -2.178   2.870  0.00  0.00    +0.010 C 
ATOM     14  C   LIG    1        7.627  -1.849   1.372  0.00  0.00    +0.070 C 
BRANCH  11  15
ATOM     15  C   LIG    1        6.072   0.078   0.694  0.00  0.00    +0.020 C 
ATOM     16  C   LIG    1        7.249   1.008   0.995  0.00  0.00    +0.050 C 
ENDBRANCH  11  15
ENDBRANCH  10  11
ENDBRANCH   1  10
TORSDOF 7
ENDMDL
MODEL      313
REMARK  Name = ZINC000168052429
REMARK                            x       y       z     vdW  Elec       q    Type
REMARK                         _______ _______ _______ _____ _____    ______ ____
ROOT
ATOM      1  N   LIG    1       -2.942  -1.888  -1.417  0.00  0.00    -0.510 N 
ATOM      2  H   LIG    1       -3.668  -1.322  -1.005  0.00  0.00    +0.430 HD
ATOM      3  H   LIG    1       -2.827  -2.733  -0.877  0.00  0.00    +0.430 HD
ENDROOT
BRANCH   1   4
ATOM      4  C   LIG    1       -3.314  -2.235  -2.795  0.00  0.00    +0.170 C 
ATOM      5  C   LIG    1       -2.275  -3.195  -3.378  0.00  0.00    +0.080 C 
BRANCH   4   6
ATOM      6  C   LIG    1       -4.689  -2.908  -2.799  0.00  0.00    -0.010 C 
ATOM      7  C   LIG    1       -5.728  -1.948  -2.216  0.00  0.00    +0.010 C 
ATOM      8  C   LIG    1       -7.102  -2.621  -2.219  0.00  0.00    +0.020 C 
ATOM      9  C   LIG    1       -7.489  -2.982  -3.655  0.00  0.00    +0.010 C 
ATOM     10  C   LIG    1       -6.450  -3.942  -4.237  0.00  0.00    +0.020 C 
ATOM     11  C   LIG    1       -5.076  -3.269  -4.234  0.00  0.00    +0.040 C 
ENDBRANCH   4   6
ENDBRANCH   1   4
BRANCH   1  12
ATOM     12  C   LIG    1       -1.680  -1.137  -1.425  0.00  0.00    +0.250 C 
BRANCH  12  13
ATOM     13  C   LIG    1       -1.293  -0.775   0.010  0.00  0.00    +0.070 C 
BRANCH  13  15
ATOM     14  C   LIG    1       -0.016   1.306   0.009  0.00  0.00    +0.050 C 
ATOM     15  C   LIG    1        0.002  -0.004   0.002  0.00  0.00    -0.150 C 
ATOM     16  C   LIG    1        1.317  -0.740  -0.015  0.00  0.00    +0.070 C 
ENDBRANCH  13  15
ENDBRANCH  12  13
ENDBRANCH   1  12
TORSDOF 5
ENDMDL
MODEL      314
REMARK  Name = ZINC000230668542
REMARK                            x       y       z     vdW  Elec       q    Type
REMARK                         _______ _______ _______ _____ _____    ______ ____
ROOT
ATOM      1  N   LIG    1        3.857  -0.516   1.479  0.00  0.00    -0.510 N 
ATOM      2  H   LIG    1        3.996  -0.116   2.395  0.00  0.00    +0.430 HD
ATOM      3  H   LIG    1        4.059   0.178   0.775  0.00  0.00    +0.420 HD
ENDROOT
BRANCH   1   4
ATOM      4  C   LIG    1        2.463  -0.959   1.344  0.00  0.00    +0.170 C 
ATOM      5  C   LIG    1        2.120  -1.917   2.486  0.00  0.00    +0.090 C 
BRANCH   4   6
ATOM      6  C   LIG    1        1.534   0.255   1.401  0.00  0.00    +0.070 C 
BRANCH   6   7
ATOM      7  C   LIG    1        1.793   1.152   0.188  0.00  0.00    +0.050 C 
BRANCH   7   9
ATOM      8  C   LIG    1        1.378   3.558   0.195  0.00  0.00    +0.040 C 
ATOM      9  C   LIG    1        0.878   2.348   0.244  0.00  0.00    -0.050 C 
ENDBRANCH   7   9
ENDBRANCH   6   7
ENDBRANCH   4   6
ENDBRANCH   1   4
BRANCH   1  10
ATOM     10  C   LIG    1        4.755  -1.666   1.305  0.00  0.00    +0.300 C 
BRANCH  10  11
ATOM     11  C   LIG    1        6.208  -1.192   1.374  0.00  0.00    -0.180 C 
ATOM     12  C   LIG    1        7.173  -1.714   0.306  0.00  0.00    +0.080 C 
ATOM     13  C   LIG    1        6.701  -0.259   0.266  0.00  0.00    +0.040 C 
BRANCH  11  14
ATOM     14  C   LIG    1        6.765  -0.972   2.782  0.00  0.00    +0.060 C 
BRANCH  14  15
ATOM     15  C   LIG    1        6.820  -2.310   3.523  0.00  0.00    +0.000 C 
ATOM     16  C   LIG    1        7.472  -2.107   4.893  0.00  0.00    +0.020 C 
ENDBRANCH  14  15
ENDBRANCH  11  14
ENDBRANCH  10  11
ENDBRANCH   1  10
TORSDOF 8
ENDMDL
MODEL      315
REMARK  Name = ZINC000168052529
REMARK                            x       y       z     vdW  Elec       q    Type
REMARK                         _______ _______ _______ _____ _____    ______ ____
ROOT
ATOM      1  N   LIG    1       -2.942  -1.888  -1.417  0.00  0.00    -0.510 N 
ATOM      2  H   LIG    1       -3.668  -1.322  -1.005  0.00  0.00    +0.420 HD
ATOM      3  H   LIG    1       -2.827  -2.733  -0.877  0.00  0.00    +0.430 HD
ENDROOT
BRANCH   1   4
ATOM      4  C   LIG    1       -3.314  -2.235  -2.795  0.00  0.00    +0.170 C 
ATOM      5  C   LIG    1       -3.610  -0.956  -3.581  0.00  0.00    +0.090 C 
BRANCH   4   6
ATOM      6  C   LIG    1       -4.560  -3.123  -2.779  0.00  0.00    -0.020 C 
ATOM      7  C   LIG    1       -5.746  -2.329  -2.227  0.00  0.00    +0.010 C 
ATOM      8  C   LIG    1       -6.991  -3.217  -2.211  0.00  0.00    +0.020 C 
ATOM      9  C   LIG    1       -7.306  -3.680  -3.635  0.00  0.00    +0.010 C 
ATOM     10  C   LIG    1       -6.121  -4.475  -4.186  0.00  0.00    +0.020 C 
ATOM     11  C   LIG    1       -4.875  -3.587  -4.203  0.00  0.00    +0.040 C 
ENDBRANCH   4   6
ENDBRANCH   1   4
BRANCH   1  12
ATOM     12  C   LIG    1       -1.680  -1.137  -1.425  0.00  0.00    +0.250 C 
BRANCH  12  13
ATOM     13  C   LIG    1       -1.293  -0.775   0.010  0.00  0.00    +0.070 C 
BRANCH  13  15
ATOM     14  C   LIG    1       -0.016   1.306   0.009  0.00  0.00    +0.050 C 
ATOM     15  C   LIG    1        0.002  -0.004   0.002  0.00  0.00    -0.150 C 
ATOM     16  C   LIG    1        1.317  -0.740  -0.015  0.00  0.00    +0.070 C 
ENDBRANCH  13  15
ENDBRANCH  12  13
ENDBRANCH   1  12
TORSDOF 5
ENDMDL
MODEL      316
REMARK  Name = ZINC000322250692
REMARK                            x       y       z     vdW  Elec       q    Type
REMARK                         _______ _______ _______ _____ _____    ______ ____
ROOT
ATOM      1  N   LIG    1       -2.844  -1.892  -1.440  0.00  0.00    -0.510 N 
ATOM      2  H   LIG    1       -2.034  -1.290  -1.432  0.00  0.00    +0.430 HD
ATOM      3  H   LIG    1       -3.618  -1.420  -0.997  0.00  0.00    +0.430 HD
ENDROOT
BRANCH   1   4
ATOM      4  C   LIG    1       -2.542  -3.130  -0.709  0.00  0.00    +0.250 C 
BRANCH   4   5
ATOM      5  C   LIG    1       -2.048  -2.784   0.697  0.00  0.00    +0.070 C 
BRANCH   5   7
ATOM      6  C   LIG    1       -0.513  -4.519   1.470  0.00  0.00    +0.050 C 
ATOM      7  C   LIG    1       -1.738  -4.054   1.447  0.00  0.00    -0.150 C 
ATOM      8  C   LIG    1       -2.837  -4.790   2.170  0.00  0.00    +0.070 C 
ENDBRANCH   5   7
ENDBRANCH   4   5
ENDBRANCH   1   4
BRANCH   1   9
ATOM      9  C   LIG    1       -3.199  -2.217  -2.828  0.00  0.00    +0.180 C 
BRANCH   9  10
ATOM     10  C   LIG    1       -4.509  -3.006  -2.848  0.00  0.00    -0.030 C 
ATOM     11  C   LIG    1       -5.763  -2.117  -2.892  0.00  0.00    +0.030 C 
ATOM     12  C   LIG    1       -6.356  -3.136  -3.879  0.00  0.00    +0.030 C 
ATOM     13  C   LIG    1       -4.908  -3.502  -4.248  0.00  0.00    +0.040 C 
ENDBRANCH   9  10
BRANCH   9  14
ATOM     14  C   LIG    1       -3.370  -0.923  -3.627  0.00  0.00    +0.050 C 
BRANCH  14  15
ATOM     15  C   LIG    1       -2.022  -0.206  -3.731  0.00  0.00    -0.000 C 
ATOM     16  C   LIG    1       -2.166   1.020  -4.635  0.00  0.00    +0.030 C 
ENDBRANCH  14  15
ENDBRANCH   9  14
ENDBRANCH   1   9
TORSDOF 7
ENDMDL
MODEL      317
REMARK  Name = ZINC000322250693
REMARK                            x       y       z     vdW  Elec       q    Type
REMARK                         _______ _______ _______ _____ _____    ______ ____
ROOT
ATOM      1  N   LIG    1       -3.160  -1.695  -1.672  0.00  0.00    -0.510 N 
ATOM      2  H   LIG    1       -3.333  -2.394  -0.965  0.00  0.00    +0.430 HD
ATOM      3  H   LIG    1       -2.198  -1.396  -1.621  0.00  0.00    +0.420 HD
ENDROOT
BRANCH   1   4
ATOM      4  C   LIG    1       -4.043  -0.543  -1.448  0.00  0.00    +0.260 C 
BRANCH   4   5
ATOM      5  C   LIG    1       -3.676   0.132  -0.125  0.00  0.00    +0.070 C 
BRANCH   5   7
ATOM      6  C   LIG    1       -5.662   1.179   0.834  0.00  0.00    +0.050 C 
ATOM      7  C   LIG    1       -4.582   1.314   0.105  0.00  0.00    -0.150 C 
ATOM      8  C   LIG    1       -4.245   2.651  -0.504  0.00  0.00    +0.070 C 
ENDBRANCH   5   7
ENDBRANCH   4   5
ENDBRANCH   1   4
BRANCH   1   9
ATOM      9  C   LIG    1       -3.426  -2.265  -2.999  0.00  0.00    +0.180 C 
BRANCH   9  10
ATOM     10  C   LIG    1       -4.843  -2.842  -3.033  0.00  0.00    -0.030 C 
ATOM     11  C   LIG    1       -5.930  -1.789  -3.302  0.00  0.00    +0.020 C 
ATOM     12  C   LIG    1       -6.613  -2.837  -4.197  0.00  0.00    +0.030 C 
ATOM     13  C   LIG    1       -5.222  -3.466  -4.386  0.00  0.00    +0.050 C 
ENDBRANCH   9  10
BRANCH   9  14
ATOM     14  C   LIG    1       -2.416  -3.377  -3.289  0.00  0.00    +0.050 C 
BRANCH  14  15
ATOM     15  C   LIG    1       -1.012  -2.777  -3.387  0.00  0.00    -0.000 C 
ATOM     16  C   LIG    1       -0.021  -3.865  -3.808  0.00  0.00    +0.030 C 
ENDBRANCH  14  15
ENDBRANCH   9  14
ENDBRANCH   1   9
TORSDOF 7
ENDMDL
MODEL      318
REMARK  Name = ZINC001173250848
REMARK                            x       y       z     vdW  Elec       q    Type
REMARK                         _______ _______ _______ _____ _____    ______ ____
ROOT
ATOM      1  C   LIG    1       -2.724  -3.422  -2.303  0.00  0.00    +0.160 C 
ENDROOT
BRANCH   1   2
ATOM      2  N   LIG    1       -2.722  -2.660  -1.047  0.00  0.00    -0.510 N 
ATOM      3  H   LIG    1       -3.511  -2.032  -1.033  0.00  0.00    +0.430 HD
ATOM      4  H   LIG    1       -2.785  -3.297  -0.267  0.00  0.00    +0.430 HD
BRANCH   2   5
ATOM      5  C   LIG    1       -1.478  -1.885  -0.947  0.00  0.00    +0.250 C 
BRANCH   5   6
ATOM      6  C   LIG    1       -1.530  -0.994   0.296  0.00  0.00    +0.060 C 
BRANCH   6   8
ATOM      7  C   LIG    1       -0.302   1.108   0.484  0.00  0.00    +0.060 C 
ATOM      8  C   LIG    1       -0.255  -0.199   0.399  0.00  0.00    -0.070 C 
ENDBRANCH   6   8
ENDBRANCH   5   6
ENDBRANCH   2   5
ENDBRANCH   1   2
BRANCH   1   9
ATOM      9  C   LIG    1       -1.613  -4.473  -2.264  0.00  0.00    +0.040 C 
BRANCH   9  10
ATOM     10  C   LIG    1       -1.541  -5.189  -3.614  0.00  0.00    -0.010 C 
ATOM     11  C   LIG    1       -0.534  -6.338  -3.529  0.00  0.00    +0.040 C 
ATOM     12  C   LIG    1       -1.096  -4.200  -4.693  0.00  0.00    +0.020 C 
ENDBRANCH   9  10
ENDBRANCH   1   9
BRANCH   1  13
ATOM     13  C   LIG    1       -4.077  -4.116  -2.475  0.00  0.00    +0.060 C 
BRANCH  13  14
ATOM     14  C   LIG    1       -5.173  -3.062  -2.639  0.00  0.00    +0.010 C 
BRANCH  14  15
ATOM     15  C   LIG    1       -6.526  -3.756  -2.812  0.00  0.00    +0.010 C 
ATOM     16  C   LIG    1       -7.623  -2.701  -2.976  0.00  0.00    +0.010 C 
ENDBRANCH  14  15
ENDBRANCH  13  14
ENDBRANCH   1  13
TORSDOF 9
ENDMDL
MODEL      319
REMARK  Name = ZINC001173246277
REMARK                            x       y       z     vdW  Elec       q    Type
REMARK                         _______ _______ _______ _____ _____    ______ ____
ROOT
ATOM      1  C   LIG    1        2.954  -1.857   1.449  0.00  0.00    +0.160 C 
ENDROOT
BRANCH   1   2
ATOM      2  N   LIG    1        1.766  -1.005   1.585  0.00  0.00    -0.510 N 
ATOM      3  H   LIG    1        1.029  -1.525   2.038  0.00  0.00    +0.430 HD
ATOM      4  H   LIG    1        1.995  -0.194   2.140  0.00  0.00    +0.420 HD
BRANCH   2   5
ATOM      5  C   LIG    1        1.315  -0.576   0.254  0.00  0.00    +0.310 C 
BRANCH   5   7
ATOM      6  C   LIG    1        0.046   1.500   0.454  0.00  0.00    +0.120 C 
ATOM      7  C   LIG    1        0.025   0.192   0.384  0.00  0.00    -0.200 C 
ATOM      8  C   LIG    1       -1.289  -0.545   0.432  0.00  0.00    +0.090 C 
ENDBRANCH   5   7
ENDBRANCH   2   5
ENDBRANCH   1   2
BRANCH   1   9
ATOM      9  C   LIG    1        4.115  -1.028   0.893  0.00  0.00    +0.040 C 
BRANCH   9  10
ATOM     10  C   LIG    1        5.318  -1.940   0.644  0.00  0.00    -0.010 C 
ATOM     11  C   LIG    1        6.523  -1.092   0.231  0.00  0.00    +0.040 C 
ATOM     12  C   LIG    1        4.985  -2.930  -0.473  0.00  0.00    +0.020 C 
ENDBRANCH   9  10
ENDBRANCH   1   9
BRANCH   1  13
ATOM     13  C   LIG    1        3.339  -2.419   2.819  0.00  0.00    +0.060 C 
BRANCH  13  14
ATOM     14  C   LIG    1        2.230  -3.348   3.318  0.00  0.00    +0.010 C 
BRANCH  14  15
ATOM     15  C   LIG    1        2.615  -3.910   4.688  0.00  0.00    +0.010 C 
ATOM     16  C   LIG    1        1.506  -4.838   5.188  0.00  0.00    +0.010 C 
ENDBRANCH  14  15
ENDBRANCH  13  14
ENDBRANCH   1  13
TORSDOF 8
ENDMDL
MODEL      320
REMARK  Name = ZINC001173256771
REMARK                            x       y       z     vdW  Elec       q    Type
REMARK                         _______ _______ _______ _____ _____    ______ ____
ROOT
ATOM      1  C   LIG    1        2.642  -2.365   1.008  0.00  0.00    +0.160 C 
ENDROOT
BRANCH   1   2
ATOM      2  N   LIG    1        1.284  -1.875   0.737  0.00  0.00    -0.380 N 
ATOM      3  C   LIG    1        1.094  -1.737  -0.713  0.00  0.00    +0.300 C 
ATOM      4  H   LIG    1        0.611  -2.530   1.104  0.00  0.00    +0.420 HD
BRANCH   2   5
ATOM      5  C   LIG    1        1.098  -0.568   1.382  0.00  0.00    +0.290 C 
BRANCH   5   7
ATOM      6  C   LIG    1       -1.029   0.158   2.336  0.00  0.00    +0.130 C 
ATOM      7  C   LIG    1       -0.344  -0.150   1.262  0.00  0.00    -0.110 C 
ENDBRANCH   5   7
ENDBRANCH   2   5
ENDBRANCH   1   2
BRANCH   1   8
ATOM      8  C   LIG    1        2.634  -3.213   2.282  0.00  0.00    +0.060 C 
BRANCH   8   9
ATOM      9  C   LIG    1        1.729  -4.430   2.079  0.00  0.00    -0.040 C 
ATOM     10  C   LIG    1        1.657  -5.235   3.378  0.00  0.00    +0.050 C 
ATOM     11  C   LIG    1        2.299  -5.309   0.964  0.00  0.00    +0.030 C 
ENDBRANCH   8   9
ENDBRANCH   1   8
BRANCH   1  12
ATOM     12  C   LIG    1        3.587  -1.176   1.193  0.00  0.00    +0.050 C 
BRANCH  12  13
ATOM     13  C   LIG    1        3.732  -0.429  -0.134  0.00  0.00    +0.010 C 
BRANCH  13  14
ATOM     14  C   LIG    1        4.731   0.718   0.033  0.00  0.00    +0.010 C 
ATOM     15  C   LIG    1        4.876   1.465  -1.294  0.00  0.00    +0.010 C 
ENDBRANCH  13  14
ENDBRANCH  12  13
ENDBRANCH   1  12
TORSDOF 8
ENDMDL
MODEL      321
REMARK  Name = ZINC001208136066
REMARK                            x       y       z     vdW  Elec       q    Type
REMARK                         _______ _______ _______ _____ _____    ______ ____
ROOT
ATOM      1  N   LIG    1       -1.819  -1.587  -1.463  0.00  0.00    -0.380 N 
ATOM      2  H   LIG    1       -2.071  -0.920  -2.177  0.00  0.00    +0.420 HD
ENDROOT
BRANCH   1   3
ATOM      3  C   LIG    1       -0.539  -2.218  -1.813  0.00  0.00    +0.240 C 
ATOM      4  C   LIG    1       -0.122  -3.178  -0.697  0.00  0.00    +0.080 C 
ENDBRANCH   1   3
BRANCH   1   5
ATOM      5  C   LIG    1       -1.688  -0.897  -0.173  0.00  0.00    +0.300 C 
BRANCH   5   7
ATOM      6  C   LIG    1       -1.123   1.444  -0.570  0.00  0.00    +0.110 C 
ATOM      7  C   LIG    1       -0.700   0.233  -0.305  0.00  0.00    -0.190 C 
ATOM      8  C   LIG    1        0.773  -0.030  -0.133  0.00  0.00    +0.090 C 
ENDBRANCH   5   7
ENDBRANCH   1   5
BRANCH   1   9
ATOM      9  C   LIG    1       -2.862  -2.617  -1.364  0.00  0.00    +0.240 C 
BRANCH   9  10
ATOM     10  C   LIG    1       -3.092  -3.243  -2.741  0.00  0.00    +0.040 C 
BRANCH  10  11
ATOM     11  C   LIG    1       -4.269  -4.218  -2.667  0.00  0.00    +0.080 C 
BRANCH  11  12
ATOM     12  C   LIG    1       -4.496  -4.835  -4.023  0.00  0.00    -0.070 C 
ATOM     13  C   LIG    1       -4.540  -6.138  -4.151  0.00  0.00    -0.010 C 
BRANCH  13  14
ATOM     14  C   LIG    1       -4.542  -7.016  -2.926  0.00  0.00    +0.030 C 
ATOM     15  C   LIG    1       -5.731  -7.977  -2.989  0.00  0.00    +0.030 C 
ENDBRANCH  13  14
ENDBRANCH  11  12
ENDBRANCH  10  11
ENDBRANCH   9  10
ENDBRANCH   1   9
TORSDOF 8
ENDMDL
MODEL      322
REMARK  Name = ZINC000322615801
REMARK                            x       y       z     vdW  Elec       q    Type
REMARK                         _______ _______ _______ _____ _____    ______ ____
ROOT
ATOM      1  N   LIG    1        1.165  -0.659   2.780  0.00  0.00    -0.500 N 
ATOM      2  H   LIG    1        0.358  -0.110   3.036  0.00  0.00    +0.420 HD
ATOM      3  H   LIG    1        2.004  -0.135   2.975  0.00  0.00    +0.420 HD
ENDROOT
BRANCH   1   4
ATOM      4  C   LIG    1        1.106  -0.975   1.346  0.00  0.00    +0.170 C 
ATOM      5  C   LIG    1        2.338  -1.793   0.954  0.00  0.00    +0.080 C 
BRANCH   4   6
ATOM      6  C   LIG    1        1.078   0.324   0.539  0.00  0.00    +0.100 C 
BRANCH   6   8
ATOM      7  C   LIG    1       -0.145   2.313   1.252  0.00  0.00    +0.060 C 
ATOM      8  C   LIG    1       -0.196   1.073   0.834  0.00  0.00    -0.090 C 
ENDBRANCH   6   8
ENDBRANCH   4   6
ENDBRANCH   1   4
BRANCH   1   9
ATOM      9  C   LIG    1        1.175  -1.907   3.556  0.00  0.00    +0.170 C 
BRANCH   9  10
ATOM     10  C   LIG    1        1.389  -1.585   5.036  0.00  0.00    -0.030 C 
ATOM     11  C   LIG    1        0.085  -1.295   5.798  0.00  0.00    +0.030 C 
ATOM     12  C   LIG    1        0.683  -2.095   6.967  0.00  0.00    +0.030 C 
ATOM     13  C   LIG    1        1.538  -2.832   5.923  0.00  0.00    +0.040 C 
ENDBRANCH   9  10
BRANCH   9  14
ATOM     14  C   LIG    1       -0.163  -2.628   3.379  0.00  0.00    +0.050 C 
BRANCH  14  15
ATOM     15  C   LIG    1       -0.065  -3.602   2.203  0.00  0.00    +0.010 C 
ATOM     16  C   LIG    1       -1.353  -4.424   2.114  0.00  0.00    +0.030 C 
ENDBRANCH  14  15
ENDBRANCH   9  14
ENDBRANCH   1   9
TORSDOF 7
ENDMDL
MODEL      323
REMARK  Name = ZINC000322615802
REMARK                            x       y       z     vdW  Elec       q    Type
REMARK                         _______ _______ _______ _____ _____    ______ ____
ROOT
ATOM      1  N   LIG    1        0.520  -2.924   1.235  0.00  0.00    -0.510 N 
ATOM      2  H   LIG    1        1.238  -2.221   1.329  0.00  0.00    +0.420 HD
ATOM      3  H   LIG    1        0.735  -3.521   0.450  0.00  0.00    +0.420 HD
ENDROOT
BRANCH   1   4
ATOM      4  C   LIG    1       -0.777  -2.272   1.013  0.00  0.00    +0.170 C 
ATOM      5  C   LIG    1       -1.038  -1.263   2.133  0.00  0.00    +0.090 C 
BRANCH   4   6
ATOM      6  C   LIG    1       -0.760  -1.547  -0.334  0.00  0.00    +0.090 C 
BRANCH   6   8
ATOM      7  C   LIG    1       -1.506  -2.582  -2.416  0.00  0.00    +0.090 C 
ATOM      8  C   LIG    1       -0.626  -2.556  -1.446  0.00  0.00    -0.110 C 
ENDBRANCH   6   8
ENDBRANCH   4   6
ENDBRANCH   1   4
BRANCH   1   9
ATOM      9  C   LIG    1        0.461  -3.730   2.461  0.00  0.00    +0.170 C 
BRANCH   9  10
ATOM     10  C   LIG    1       -0.521  -4.888   2.264  0.00  0.00    -0.030 C 
ATOM     11  C   LIG    1        0.122  -6.141   1.647  0.00  0.00    +0.030 C 
ATOM     12  C   LIG    1       -0.736  -6.964   2.623  0.00  0.00    +0.030 C 
ATOM     13  C   LIG    1       -0.750  -5.725   3.533  0.00  0.00    +0.040 C 
ENDBRANCH   9  10
BRANCH   9  14
ATOM     14  C   LIG    1        1.851  -4.288   2.773  0.00  0.00    +0.050 C 
BRANCH  14  15
ATOM     15  C   LIG    1        2.796  -3.137   3.123  0.00  0.00    -0.010 C 
ATOM     16  C   LIG    1        4.209  -3.683   3.336  0.00  0.00    +0.030 C 
ENDBRANCH  14  15
ENDBRANCH   9  14
ENDBRANCH   1   9
TORSDOF 7
ENDMDL
MODEL      324
REMARK  Name = ZINC000322615800
REMARK                            x       y       z     vdW  Elec       q    Type
REMARK                         _______ _______ _______ _____ _____    ______ ____
ROOT
ATOM      1  N   LIG    1        0.611  -3.070   1.039  0.00  0.00    -0.500 N 
ATOM      2  H   LIG    1        0.569  -3.698   0.250  0.00  0.00    +0.420 HD
ATOM      3  H   LIG    1       -0.166  -2.427   0.999  0.00  0.00    +0.420 HD
ENDROOT
BRANCH   1   4
ATOM      4  C   LIG    1        1.872  -2.317   0.998  0.00  0.00    +0.160 C 
ATOM      5  C   LIG    1        3.046  -3.294   0.899  0.00  0.00    +0.090 C 
BRANCH   4   6
ATOM      6  C   LIG    1        1.875  -1.391  -0.220  0.00  0.00    +0.090 C 
BRANCH   6   8
ATOM      7  C   LIG    1        1.095   0.921  -0.139  0.00  0.00    +0.090 C 
ATOM      8  C   LIG    1        0.795  -0.352  -0.062  0.00  0.00    -0.110 C 
ENDBRANCH   6   8
ENDBRANCH   4   6
ENDBRANCH   1   4
BRANCH   1   9
ATOM      9  C   LIG    1        0.542  -3.844   2.286  0.00  0.00    +0.170 C 
BRANCH   9  10
ATOM     10  C   LIG    1       -0.293  -5.105   2.057  0.00  0.00    -0.030 C 
ATOM     11  C   LIG    1        0.498  -6.261   1.421  0.00  0.00    +0.020 C 
ATOM     12  C   LIG    1       -0.260  -7.200   2.374  0.00  0.00    +0.030 C 
ATOM     13  C   LIG    1       -0.427  -5.990   3.308  0.00  0.00    +0.050 C 
ENDBRANCH   9  10
BRANCH   9  14
ATOM     14  C   LIG    1       -0.108  -2.993   3.379  0.00  0.00    +0.060 C 
BRANCH  14  15
ATOM     15  C   LIG    1        0.781  -1.784   3.680  0.00  0.00    +0.000 C 
ATOM     16  C   LIG    1        0.208  -1.015   4.872  0.00  0.00    +0.030 C 
ENDBRANCH  14  15
ENDBRANCH   9  14
ENDBRANCH   1   9
TORSDOF 7
ENDMDL
MODEL      325
REMARK  Name = ZINC000322615803
REMARK                            x       y       z     vdW  Elec       q    Type
REMARK                         _______ _______ _______ _____ _____    ______ ____
ROOT
ATOM      1  N   LIG    1        1.179  -1.369   2.271  0.00  0.00    -0.500 N 
ATOM      2  H   LIG    1        1.977  -0.794   2.497  0.00  0.00    +0.420 HD
ATOM      3  H   LIG    1        1.350  -1.857   1.405  0.00  0.00    +0.420 HD
ENDROOT
BRANCH   1   4
ATOM      4  C   LIG    1       -0.011  -0.518   2.126  0.00  0.00    +0.170 C 
ATOM      5  C   LIG    1       -1.188  -1.367   1.639  0.00  0.00    +0.090 C 
BRANCH   4   6
ATOM      6  C   LIG    1        0.275   0.589   1.109  0.00  0.00    +0.100 C 
BRANCH   6   8
ATOM      7  C   LIG    1        2.432   1.720   0.939  0.00  0.00    +0.060 C 
ATOM      8  C   LIG    1        1.351   1.497   1.645  0.00  0.00    -0.090 C 
ENDBRANCH   6   8
ENDBRANCH   4   6
ENDBRANCH   1   4
BRANCH   1   9
ATOM      9  C   LIG    1        0.956  -2.343   3.348  0.00  0.00    +0.170 C 
BRANCH   9  10
ATOM     10  C   LIG    1        0.863  -1.610   4.688  0.00  0.00    -0.030 C 
ATOM     11  C   LIG    1       -0.529  -1.023   4.974  0.00  0.00    +0.020 C 
ATOM     12  C   LIG    1       -0.335  -1.476   6.430  0.00  0.00    +0.030 C 
ATOM     13  C   LIG    1        0.629  -2.544   5.886  0.00  0.00    +0.050 C 
ENDBRANCH   9  10
BRANCH   9  14
ATOM     14  C   LIG    1        2.120  -3.334   3.388  0.00  0.00    +0.050 C 
BRANCH  14  15
ATOM     15  C   LIG    1        2.167  -4.120   2.077  0.00  0.00    -0.000 C 
ATOM     16  C   LIG    1        3.247  -5.200   2.167  0.00  0.00    +0.030 C 
ENDBRANCH  14  15
ENDBRANCH   9  14
ENDBRANCH   1   9
TORSDOF 7
ENDMDL
MODEL      326
REMARK  Name = ZINC001173246281
REMARK                            x       y       z     vdW  Elec       q    Type
REMARK                         _______ _______ _______ _____ _____    ______ ____
ROOT
ATOM      1  C   LIG    1        2.874  -1.759   1.454  0.00  0.00    +0.160 C 
ENDROOT
BRANCH   1   2
ATOM      2  N   LIG    1        1.566  -1.135   1.209  0.00  0.00    -0.510 N 
ATOM      3  H   LIG    1        1.505  -0.269   1.724  0.00  0.00    +0.430 HD
ATOM      4  H   LIG    1        1.463  -0.948   0.223  0.00  0.00    +0.420 HD
BRANCH   2   5
ATOM      5  C   LIG    1        0.500  -2.044   1.650  0.00  0.00    +0.300 C 
BRANCH   5   7
ATOM      6  C   LIG    1       -1.502  -1.663   0.304  0.00  0.00    +0.110 C 
ATOM      7  C   LIG    1       -0.841  -1.401   1.405  0.00  0.00    -0.200 C 
ATOM      8  C   LIG    1       -1.422  -0.457   2.425  0.00  0.00    +0.090 C 
ENDBRANCH   5   7
ENDBRANCH   2   5
ENDBRANCH   1   2
BRANCH   1   9
ATOM      9  C   LIG    1        2.960  -3.080   0.688  0.00  0.00    +0.060 C 
BRANCH   9  10
ATOM     10  C   LIG    1        2.869  -2.805  -0.815  0.00  0.00    -0.050 C 
ATOM     11  C   LIG    1        2.821  -4.132  -1.574  0.00  0.00    +0.050 C 
ATOM     12  C   LIG    1        4.093  -2.005  -1.262  0.00  0.00    +0.030 C 
ENDBRANCH   9  10
ENDBRANCH   1   9
BRANCH   1  13
ATOM     13  C   LIG    1        3.038  -2.026   2.952  0.00  0.00    +0.050 C 
BRANCH  13  14
ATOM     14  C   LIG    1        3.076  -0.696   3.707  0.00  0.00    -0.000 C 
BRANCH  14  15
ATOM     15  C   LIG    1        3.240  -0.964   5.204  0.00  0.00    +0.010 C 
ATOM     16  C   LIG    1        3.278   0.367   5.959  0.00  0.00    +0.010 C 
ENDBRANCH  14  15
ENDBRANCH  13  14
ENDBRANCH   1  13
TORSDOF 8
ENDMDL
MODEL      327
REMARK  Name = ZINC001173256769
REMARK                            x       y       z     vdW  Elec       q    Type
REMARK                         _______ _______ _______ _____ _____    ______ ____
ROOT
ATOM      1  C   LIG    1        3.078  -2.290   0.681  0.00  0.00    +0.160 C 
ENDROOT
BRANCH   1   2
ATOM      2  N   LIG    1        1.815  -1.541   0.727  0.00  0.00    -0.380 N 
ATOM      3  C   LIG    1        1.770  -0.589  -0.392  0.00  0.00    +0.310 C 
ATOM      4  H   LIG    1        1.040  -2.183   0.653  0.00  0.00    +0.420 HD
BRANCH   2   5
ATOM      5  C   LIG    1        1.725  -0.809   1.997  0.00  0.00    +0.290 C 
BRANCH   5   7
ATOM      6  C   LIG    1       -0.388  -0.384   3.145  0.00  0.00    +0.130 C 
ATOM      7  C   LIG    1        0.372  -0.152   2.104  0.00  0.00    -0.110 C 
ENDBRANCH   5   7
ENDBRANCH   2   5
ENDBRANCH   1   2
BRANCH   1   8
ATOM      8  C   LIG    1        4.245  -1.338   0.951  0.00  0.00    +0.040 C 
BRANCH   8   9
ATOM      9  C   LIG    1        5.566  -2.091   0.785  0.00  0.00    -0.010 C 
ATOM     10  C   LIG    1        6.728  -1.175   1.176  0.00  0.00    +0.040 C 
ATOM     11  C   LIG    1        5.726  -2.525  -0.673  0.00  0.00    +0.020 C 
ENDBRANCH   8   9
ENDBRANCH   1   8
BRANCH   1  12
ATOM     12  C   LIG    1        3.058  -3.387   1.747  0.00  0.00    +0.050 C 
BRANCH  12  13
ATOM     13  C   LIG    1        1.967  -4.405   1.411  0.00  0.00    +0.000 C 
BRANCH  13  14
ATOM     14  C   LIG    1        1.891  -5.457   2.520  0.00  0.00    +0.020 C 
ATOM     15  C   LIG    1        0.799  -6.475   2.183  0.00  0.00    +0.010 C 
ENDBRANCH  13  14
ENDBRANCH  12  13
ENDBRANCH   1  12
TORSDOF 8
ENDMDL
MODEL      328
REMARK  Name = ZINC000323776577
REMARK                            x       y       z     vdW  Elec       q    Type
REMARK                         _______ _______ _______ _____ _____    ______ ____
ROOT
ATOM      1  N   LIG    1        4.487  -5.030   3.259  0.00  0.00    -0.510 N 
ATOM      2  H   LIG    1        3.661  -5.556   3.017  0.00  0.00    +0.430 HD
ATOM      3  H   LIG    1        4.345  -4.571   4.146  0.00  0.00    +0.430 HD
ENDROOT
BRANCH   1   4
ATOM      4  C   LIG    1        4.748  -4.022   2.222  0.00  0.00    +0.250 C 
BRANCH   4   5
ATOM      5  C   LIG    1        3.610  -3.000   2.207  0.00  0.00    +0.030 C 
BRANCH   5   6
ATOM      6  C   LIG    1        3.881  -1.951   1.127  0.00  0.00    +0.020 C 
BRANCH   6   7
ATOM      7  C   LIG    1        2.743  -0.929   1.112  0.00  0.00    +0.020 C 
BRANCH   7   8
ATOM      8  C   LIG    1        3.014   0.121   0.032  0.00  0.00    +0.050 C 
BRANCH   8  10
ATOM      9  C   LIG    1        2.157   2.404   0.145  0.00  0.00    +0.020 C 
ATOM     10  C   LIG    1        1.893   1.128   0.017  0.00  0.00    -0.060 C 
ENDBRANCH   8  10
ENDBRANCH   7   8
ENDBRANCH   6   7
ENDBRANCH   5   6
ENDBRANCH   4   5
ENDBRANCH   1   4
BRANCH   1  11
ATOM     11  C   LIG    1        5.636  -5.940   3.358  0.00  0.00    +0.200 C 
BRANCH  11  12
ATOM     12  C   LIG    1        5.771  -6.734   2.057  0.00  0.00    -0.080 C 
ATOM     13  C   LIG    1        6.981  -6.435   1.169  0.00  0.00    +0.050 C 
ATOM     14  C   LIG    1        6.918  -7.742   1.961  0.00  0.00    +0.070 C 
ENDBRANCH  11  12
BRANCH  11  15
ATOM     15  C   LIG    1        5.423  -6.906   4.525  0.00  0.00    +0.050 C 
ATOM     16  C   LIG    1        5.414  -6.123   5.840  0.00  0.00    +0.020 C 
ENDBRANCH  11  15
ENDBRANCH   1  11
TORSDOF 9
ENDMDL
MODEL      329
REMARK  Name = ZINC000323776576
REMARK                            x       y       z     vdW  Elec       q    Type
REMARK                         _______ _______ _______ _____ _____    ______ ____
ROOT
ATOM      1  N   LIG    1        4.098  -5.202   3.342  0.00  0.00    -0.510 N 
ATOM      2  H   LIG    1        3.341  -5.851   3.190  0.00  0.00    +0.430 HD
ATOM      3  H   LIG    1        3.972  -4.739   4.229  0.00  0.00    +0.430 HD
ENDROOT
BRANCH   1   4
ATOM      4  C   LIG    1        4.110  -4.202   2.265  0.00  0.00    +0.250 C 
BRANCH   4   5
ATOM      5  C   LIG    1        2.737  -3.533   2.176  0.00  0.00    +0.030 C 
BRANCH   5   6
ATOM      6  C   LIG    1        2.748  -2.492   1.054  0.00  0.00    +0.020 C 
BRANCH   6   7
ATOM      7  C   LIG    1        1.375  -1.823   0.965  0.00  0.00    +0.020 C 
BRANCH   7   8
ATOM      8  C   LIG    1        1.387  -0.783  -0.156  0.00  0.00    +0.050 C 
BRANCH   8  10
ATOM      9  C   LIG    1       -0.065   1.180  -0.170  0.00  0.00    +0.020 C 
ATOM     10  C   LIG    1        0.035  -0.124  -0.245  0.00  0.00    -0.060 C 
ENDBRANCH   8  10
ENDBRANCH   7   8
ENDBRANCH   6   7
ENDBRANCH   5   6
ENDBRANCH   4   5
ENDBRANCH   1   4
BRANCH   1  11
ATOM     11  C   LIG    1        5.374  -5.930   3.347  0.00  0.00    +0.200 C 
BRANCH  11  12
ATOM     12  C   LIG    1        6.507  -4.972   3.721  0.00  0.00    -0.080 C 
ATOM     13  C   LIG    1        7.268  -5.251   5.019  0.00  0.00    +0.050 C 
ATOM     14  C   LIG    1        7.937  -5.514   3.668  0.00  0.00    +0.070 C 
ENDBRANCH  11  12
BRANCH  11  15
ATOM     15  C   LIG    1        5.308  -7.066   4.370  0.00  0.00    +0.050 C 
ATOM     16  C   LIG    1        4.258  -8.088   3.930  0.00  0.00    +0.030 C 
ENDBRANCH  11  15
ENDBRANCH   1  11
TORSDOF 9
ENDMDL
MODEL      330
REMARK  Name = ZINC001173250849
REMARK                            x       y       z     vdW  Elec       q    Type
REMARK                         _______ _______ _______ _____ _____    ______ ____
ROOT
ATOM      1  C   LIG    1       -2.703  -3.380  -2.184  0.00  0.00    +0.160 C 
ENDROOT
BRANCH   1   2
ATOM      2  N   LIG    1       -2.499  -2.307  -1.202  0.00  0.00    -0.510 N 
ATOM      3  H   LIG    1       -2.568  -2.687  -0.270  0.00  0.00    +0.430 HD
ATOM      4  H   LIG    1       -1.585  -1.900  -1.333  0.00  0.00    +0.430 HD
BRANCH   2   5
ATOM      5  C   LIG    1       -3.527  -1.273  -1.386  0.00  0.00    +0.260 C 
BRANCH   5   6
ATOM      6  C   LIG    1       -3.320  -0.160  -0.357  0.00  0.00    +0.070 C 
BRANCH   6   8
ATOM      7  C   LIG    1       -5.134   1.256   0.460  0.00  0.00    +0.060 C 
ATOM      8  C   LIG    1       -4.373   0.901  -0.546  0.00  0.00    -0.060 C 
ENDBRANCH   6   8
ENDBRANCH   5   6
ENDBRANCH   2   5
ENDBRANCH   1   2
BRANCH   1   9
ATOM      9  C   LIG    1       -2.617  -2.800  -3.598  0.00  0.00    +0.060 C 
BRANCH   9  10
ATOM     10  C   LIG    1       -1.214  -2.236  -3.833  0.00  0.00    -0.040 C 
ATOM     11  C   LIG    1       -1.167  -1.539  -5.194  0.00  0.00    +0.050 C 
ATOM     12  C   LIG    1       -0.195  -3.376  -3.808  0.00  0.00    +0.030 C 
ENDBRANCH   9  10
ENDBRANCH   1   9
BRANCH   1  13
ATOM     13  C   LIG    1       -4.082  -4.009  -1.974  0.00  0.00    +0.050 C 
BRANCH  13  14
ATOM     14  C   LIG    1       -4.126  -4.697  -0.608  0.00  0.00    +0.010 C 
BRANCH  14  15
ATOM     15  C   LIG    1       -5.504  -5.326  -0.398  0.00  0.00    +0.010 C 
ATOM     16  C   LIG    1       -5.548  -6.014   0.968  0.00  0.00    +0.010 C 
ENDBRANCH  14  15
ENDBRANCH  13  14
ENDBRANCH   1  13
TORSDOF 9
ENDMDL
MODEL      331
REMARK  Name = ZINC000621301544
REMARK                            x       y       z     vdW  Elec       q    Type
REMARK                         _______ _______ _______ _____ _____    ______ ____
ROOT
ATOM      1  N   LIG    1        1.239  -1.700   1.151  0.00  0.00    -0.380 N 
ATOM      2  H   LIG    1        0.933  -1.190   1.966  0.00  0.00    +0.420 HD
ENDROOT
BRANCH   1   3
ATOM      3  C   LIG    1        2.524  -2.353   1.435  0.00  0.00    +0.160 C 
ATOM      4  C   LIG    1        3.567  -1.293   1.793  0.00  0.00    +0.040 C 
ATOM      5  C   LIG    1        4.905  -1.973   2.089  0.00  0.00    +0.030 C 
ATOM      6  C   LIG    1        4.737  -2.940   3.263  0.00  0.00    +0.020 C 
ATOM      7  C   LIG    1        3.693  -4.001   2.904  0.00  0.00    +0.030 C 
ATOM      8  C   LIG    1        2.355  -3.320   2.608  0.00  0.00    +0.040 C 
ENDBRANCH   1   3
BRANCH   1   9
ATOM      9  C   LIG    1        1.400  -0.772   0.024  0.00  0.00    +0.290 C 
BRANCH   9  11
ATOM     10  C   LIG    1        1.158  -1.441  -2.312  0.00  0.00    +0.120 C 
ATOM     11  C   LIG    1        1.841  -1.536  -1.198  0.00  0.00    -0.100 C 
ENDBRANCH   9  11
ENDBRANCH   1   9
BRANCH   1  12
ATOM     12  C   LIG    1        0.237  -2.718   0.806  0.00  0.00    +0.240 C 
BRANCH  12  13
ATOM     13  C   LIG    1       -1.127  -2.050   0.622  0.00  0.00    +0.020 C 
BRANCH  13  14
ATOM     14  C   LIG    1       -2.155  -3.099   0.194  0.00  0.00    +0.020 C 
ATOM     15  C   LIG    1       -3.519  -2.432   0.010  0.00  0.00    +0.030 C 
ENDBRANCH  13  14
ENDBRANCH  12  13
ENDBRANCH   1  12
TORSDOF 6
ENDMDL
MODEL      332
REMARK  Name = ZINC001208193941
REMARK                            x       y       z     vdW  Elec       q    Type
REMARK                         _______ _______ _______ _____ _____    ______ ____
ROOT
ATOM      1  C   LIG    1       -3.077  -2.786  -2.716  0.00  0.00    +0.030 C 
ENDROOT
BRANCH   1   2
ATOM      2  C   LIG    1       -3.030  -1.905  -1.466  0.00  0.00    +0.250 C 
BRANCH   2   3
ATOM      3  N   LIG    1       -1.846  -1.037  -1.523  0.00  0.00    -0.380 N 
ATOM      4  C   LIG    1       -0.632  -1.861  -1.462  0.00  0.00    +0.310 C 
ATOM      5  H   LIG    1       -1.854  -0.512  -2.385  0.00  0.00    +0.430 HD
BRANCH   3   6
ATOM      6  C   LIG    1       -1.865  -0.108  -0.384  0.00  0.00    +0.290 C 
BRANCH   6   8
ATOM      7  C   LIG    1       -0.947   2.151  -0.491  0.00  0.00    +0.130 C 
ATOM      8  C   LIG    1       -0.718   0.862  -0.508  0.00  0.00    -0.110 C 
ENDBRANCH   6   8
ENDBRANCH   3   6
ENDBRANCH   2   3
ENDBRANCH   1   2
BRANCH   1   9
ATOM      9  C   LIG    1       -4.310  -3.690  -2.657  0.00  0.00    +0.020 C 
BRANCH   9  10
ATOM     10  C   LIG    1       -4.356  -4.571  -3.907  0.00  0.00    +0.030 C 
BRANCH  10  11
ATOM     11  C   LIG    1       -5.590  -5.475  -3.848  0.00  0.00    +0.050 C 
BRANCH  11  12
ATOM     12  C   LIG    1       -5.635  -6.343  -5.080  0.00  0.00    -0.060 C 
ATOM     13  C   LIG    1       -5.759  -7.641  -4.961  0.00  0.00    -0.040 C 
BRANCH  13  14
ATOM     14  C   LIG    1       -6.025  -8.253  -3.610  0.00  0.00    +0.030 C 
ATOM     15  C   LIG    1       -7.265  -9.146  -3.689  0.00  0.00    +0.030 C 
ENDBRANCH  13  14
ENDBRANCH  11  12
ENDBRANCH  10  11
ENDBRANCH   9  10
ENDBRANCH   1   9
TORSDOF 9
ENDMDL
MODEL      333
REMARK  Name = ZINC001208662707
REMARK                            x       y       z     vdW  Elec       q    Type
REMARK                         _______ _______ _______ _____ _____    ______ ____
ROOT
ATOM      1  C   LIG    1        2.070  -3.305   2.598  0.00  0.00    +0.030 C 
ENDROOT
BRANCH   1   2
ATOM      2  C   LIG    1        3.497  -3.529   3.103  0.00  0.00    +0.000 C 
ATOM      3  C   LIG    1        4.181  -2.177   3.316  0.00  0.00    +0.020 C 
BRANCH   2   4
ATOM      4  C   LIG    1        3.454  -4.293   4.428  0.00  0.00    +0.030 C 
BRANCH   4   5
ATOM      5  C   LIG    1        4.875  -4.683   4.838  0.00  0.00    -0.070 C 
ATOM      6  C   LIG    1        5.553  -5.426   3.685  0.00  0.00    +0.020 C 
ATOM      7  C   LIG    1        4.820  -5.592   6.068  0.00  0.00    +0.020 C 
ATOM      8  C   LIG    1        5.674  -3.422   5.171  0.00  0.00    +0.030 C 
ENDBRANCH   4   5
ENDBRANCH   2   4
ENDBRANCH   1   2
BRANCH   1   9
ATOM      9  C   LIG    1        2.116  -2.652   1.214  0.00  0.00    +0.250 C 
BRANCH   9  10
ATOM     10  N   LIG    1        0.747  -2.437   0.729  0.00  0.00    -0.380 N 
ATOM     11  C   LIG    1        0.090  -3.735   0.524  0.00  0.00    +0.310 C 
ATOM     12  H   LIG    1        0.229  -1.901   1.409  0.00  0.00    +0.420 HD
BRANCH  10  13
ATOM     13  C   LIG    1        0.788  -1.703  -0.543  0.00  0.00    +0.290 C 
BRANCH  13  15
ATOM     14  C   LIG    1       -0.950  -0.134  -1.235  0.00  0.00    +0.130 C 
ATOM     15  C   LIG    1       -0.617  -1.375  -0.979  0.00  0.00    -0.110 C 
ENDBRANCH  13  15
ENDBRANCH  10  13
ENDBRANCH   9  10
ENDBRANCH   1   9
TORSDOF 7
ENDMDL
MODEL      334
REMARK  Name = ZINC000233991054
REMARK                            x       y       z     vdW  Elec       q    Type
REMARK                         _______ _______ _______ _____ _____    ______ ____
ROOT
ATOM      1  N   LIG    1        4.143  -5.127   3.433  0.00  0.00    -0.510 N 
ATOM      2  H   LIG    1        3.386  -5.789   3.354  0.00  0.00    +0.430 HD
ATOM      3  H   LIG    1        4.054  -4.616   4.299  0.00  0.00    +0.430 HD
ENDROOT
BRANCH   1   4
ATOM      4  C   LIG    1        5.425  -5.844   3.417  0.00  0.00    +0.170 C 
ATOM      5  C   LIG    1        6.566  -4.854   3.662  0.00  0.00    +0.080 C 
BRANCH   4   6
ATOM      6  C   LIG    1        5.428  -6.908   4.516  0.00  0.00    -0.010 C 
ATOM      7  C   LIG    1        4.287  -7.897   4.271  0.00  0.00    +0.040 C 
BRANCH   6   8
ATOM      8  C   LIG    1        6.763  -7.655   4.499  0.00  0.00    +0.030 C 
ATOM      9  C   LIG    1        6.815  -8.632   5.675  0.00  0.00    +0.030 C 
ENDBRANCH   6   8
ENDBRANCH   4   6
ENDBRANCH   1   4
BRANCH   1  10
ATOM     10  C   LIG    1        4.093  -4.188   2.304  0.00  0.00    +0.250 C 
BRANCH  10  11
ATOM     11  C   LIG    1        2.757  -3.441   2.321  0.00  0.00    +0.030 C 
BRANCH  11  12
ATOM     12  C   LIG    1        2.705  -2.464   1.145  0.00  0.00    +0.020 C 
BRANCH  12  13
ATOM     13  C   LIG    1        1.370  -1.717   1.161  0.00  0.00    +0.020 C 
BRANCH  13  14
ATOM     14  C   LIG    1        1.317  -0.740  -0.015  0.00  0.00    +0.050 C 
BRANCH  14  16
ATOM     15  C   LIG    1       -0.016   1.306   0.009  0.00  0.00    +0.020 C 
ATOM     16  C   LIG    1        0.002  -0.004   0.002  0.00  0.00    -0.060 C 
ENDBRANCH  14  16
ENDBRANCH  13  14
ENDBRANCH  12  13
ENDBRANCH  11  12
ENDBRANCH  10  11
ENDBRANCH   1  10
TORSDOF 9
ENDMDL
MODEL      335
REMARK  Name = ZINC000234019981
REMARK                            x       y       z     vdW  Elec       q    Type
REMARK                         _______ _______ _______ _____ _____    ______ ____
ROOT
ATOM      1  N   LIG    1        4.143  -5.127   3.433  0.00  0.00    -0.510 N 
ATOM      2  H   LIG    1        3.386  -5.789   3.354  0.00  0.00    +0.420 HD
ATOM      3  H   LIG    1        4.054  -4.616   4.299  0.00  0.00    +0.430 HD
ENDROOT
BRANCH   1   4
ATOM      4  C   LIG    1        5.425  -5.844   3.417  0.00  0.00    +0.170 C 
ATOM      5  C   LIG    1        5.506  -6.715   2.162  0.00  0.00    +0.090 C 
BRANCH   4   6
ATOM      6  C   LIG    1        5.530  -6.729   4.660  0.00  0.00    -0.020 C 
ATOM      7  C   LIG    1        4.456  -7.818   4.604  0.00  0.00    +0.050 C 
BRANCH   6   8
ATOM      8  C   LIG    1        6.914  -7.379   4.708  0.00  0.00    +0.030 C 
ATOM      9  C   LIG    1        7.064  -8.164   6.013  0.00  0.00    +0.030 C 
ENDBRANCH   6   8
ENDBRANCH   4   6
ENDBRANCH   1   4
BRANCH   1  10
ATOM     10  C   LIG    1        4.093  -4.188   2.304  0.00  0.00    +0.250 C 
BRANCH  10  11
ATOM     11  C   LIG    1        2.757  -3.441   2.321  0.00  0.00    +0.030 C 
BRANCH  11  12
ATOM     12  C   LIG    1        2.705  -2.464   1.145  0.00  0.00    +0.020 C 
BRANCH  12  13
ATOM     13  C   LIG    1        1.370  -1.717   1.161  0.00  0.00    +0.020 C 
BRANCH  13  14
ATOM     14  C   LIG    1        1.317  -0.740  -0.015  0.00  0.00    +0.050 C 
BRANCH  14  16
ATOM     15  C   LIG    1       -0.016   1.306   0.009  0.00  0.00    +0.020 C 
ATOM     16  C   LIG    1        0.002  -0.004   0.002  0.00  0.00    -0.060 C 
ENDBRANCH  14  16
ENDBRANCH  13  14
ENDBRANCH  12  13
ENDBRANCH  11  12
ENDBRANCH  10  11
ENDBRANCH   1  10
TORSDOF 9
ENDMDL
MODEL      336
REMARK  Name = ZINC000233862074
REMARK                            x       y       z     vdW  Elec       q    Type
REMARK                         _______ _______ _______ _____ _____    ______ ____
ROOT
ATOM      1  N   LIG    1        4.143  -5.127   3.433  0.00  0.00    -0.510 N 
ATOM      2  H   LIG    1        3.386  -5.789   3.354  0.00  0.00    +0.430 HD
ATOM      3  H   LIG    1        4.054  -4.616   4.299  0.00  0.00    +0.420 HD
ENDROOT
BRANCH   1   4
ATOM      4  C   LIG    1        5.425  -5.844   3.417  0.00  0.00    +0.170 C 
ATOM      5  C   LIG    1        6.566  -4.854   3.662  0.00  0.00    +0.080 C 
BRANCH   4   6
ATOM      6  C   LIG    1        5.428  -6.908   4.516  0.00  0.00    -0.010 C 
ATOM      7  C   LIG    1        5.237  -6.236   5.877  0.00  0.00    +0.040 C 
BRANCH   6   8
ATOM      8  C   LIG    1        6.763  -7.655   4.499  0.00  0.00    +0.030 C 
ATOM      9  C   LIG    1        6.720  -8.799   5.514  0.00  0.00    +0.030 C 
ENDBRANCH   6   8
ENDBRANCH   4   6
ENDBRANCH   1   4
BRANCH   1  10
ATOM     10  C   LIG    1        4.093  -4.188   2.304  0.00  0.00    +0.250 C 
BRANCH  10  11
ATOM     11  C   LIG    1        2.757  -3.441   2.321  0.00  0.00    +0.030 C 
BRANCH  11  12
ATOM     12  C   LIG    1        2.705  -2.464   1.145  0.00  0.00    +0.020 C 
BRANCH  12  13
ATOM     13  C   LIG    1        1.370  -1.717   1.161  0.00  0.00    +0.020 C 
BRANCH  13  14
ATOM     14  C   LIG    1        1.317  -0.740  -0.015  0.00  0.00    +0.050 C 
BRANCH  14  16
ATOM     15  C   LIG    1       -0.016   1.306   0.009  0.00  0.00    +0.020 C 
ATOM     16  C   LIG    1        0.002  -0.004   0.002  0.00  0.00    -0.060 C 
ENDBRANCH  14  16
ENDBRANCH  13  14
ENDBRANCH  12  13
ENDBRANCH  11  12
ENDBRANCH  10  11
ENDBRANCH   1  10
TORSDOF 9
ENDMDL
MODEL      337
REMARK  Name = ZINC000233853293
REMARK                            x       y       z     vdW  Elec       q    Type
REMARK                         _______ _______ _______ _____ _____    ______ ____
ROOT
ATOM      1  N   LIG    1        4.143  -5.127   3.433  0.00  0.00    -0.510 N 
ATOM      2  H   LIG    1        3.386  -5.789   3.354  0.00  0.00    +0.430 HD
ATOM      3  H   LIG    1        4.054  -4.616   4.299  0.00  0.00    +0.430 HD
ENDROOT
BRANCH   1   4
ATOM      4  C   LIG    1        5.425  -5.844   3.417  0.00  0.00    +0.170 C 
ATOM      5  C   LIG    1        5.506  -6.715   2.162  0.00  0.00    +0.080 C 
BRANCH   4   6
ATOM      6  C   LIG    1        5.530  -6.729   4.660  0.00  0.00    -0.010 C 
ATOM      7  C   LIG    1        5.449  -5.857   5.915  0.00  0.00    +0.040 C 
BRANCH   6   8
ATOM      8  C   LIG    1        6.865  -7.476   4.644  0.00  0.00    +0.030 C 
ATOM      9  C   LIG    1        6.917  -8.453   5.820  0.00  0.00    +0.030 C 
ENDBRANCH   6   8
ENDBRANCH   4   6
ENDBRANCH   1   4
BRANCH   1  10
ATOM     10  C   LIG    1        4.093  -4.188   2.304  0.00  0.00    +0.250 C 
BRANCH  10  11
ATOM     11  C   LIG    1        2.757  -3.441   2.321  0.00  0.00    +0.030 C 
BRANCH  11  12
ATOM     12  C   LIG    1        2.705  -2.464   1.145  0.00  0.00    +0.020 C 
BRANCH  12  13
ATOM     13  C   LIG    1        1.370  -1.717   1.161  0.00  0.00    +0.020 C 
BRANCH  13  14
ATOM     14  C   LIG    1        1.317  -0.740  -0.015  0.00  0.00    +0.050 C 
BRANCH  14  16
ATOM     15  C   LIG    1       -0.016   1.306   0.009  0.00  0.00    +0.020 C 
ATOM     16  C   LIG    1        0.002  -0.004   0.002  0.00  0.00    -0.060 C 
ENDBRANCH  14  16
ENDBRANCH  13  14
ENDBRANCH  12  13
ENDBRANCH  11  12
ENDBRANCH  10  11
ENDBRANCH   1  10
TORSDOF 9
ENDMDL
MODEL      338
REMARK  Name = ZINC001208662716
REMARK                            x       y       z     vdW  Elec       q    Type
REMARK                         _______ _______ _______ _____ _____    ______ ____
ROOT
ATOM      1  C   LIG    1        2.262  -3.711   2.778  0.00  0.00    +0.040 C 
ENDROOT
BRANCH   1   2
ATOM      2  C   LIG    1        3.640  -4.361   2.638  0.00  0.00    +0.000 C 
ATOM      3  C   LIG    1        3.564  -5.504   1.624  0.00  0.00    +0.020 C 
BRANCH   2   4
ATOM      4  C   LIG    1        4.085  -4.911   3.995  0.00  0.00    +0.030 C 
BRANCH   4   5
ATOM      5  C   LIG    1        5.608  -5.057   4.012  0.00  0.00    -0.070 C 
ATOM      6  C   LIG    1        6.052  -5.910   2.821  0.00  0.00    +0.030 C 
ATOM      7  C   LIG    1        6.041  -5.734   5.314  0.00  0.00    +0.030 C 
ATOM      8  C   LIG    1        6.253  -3.673   3.917  0.00  0.00    +0.020 C 
ENDBRANCH   4   5
ENDBRANCH   2   4
ENDBRANCH   1   2
BRANCH   1   9
ATOM      9  C   LIG    1        1.872  -3.052   1.453  0.00  0.00    +0.250 C 
BRANCH   9  10
ATOM     10  N   LIG    1        0.549  -2.429   1.588  0.00  0.00    -0.380 N 
ATOM     11  C   LIG    1       -0.462  -3.469   1.817  0.00  0.00    +0.310 C 
ATOM     12  H   LIG    1        0.556  -1.789   2.368  0.00  0.00    +0.420 HD
BRANCH  10  13
ATOM     13  C   LIG    1        0.226  -1.695   0.357  0.00  0.00    +0.290 C 
BRANCH  13  15
ATOM     14  C   LIG    1       -1.126   0.338   0.331  0.00  0.00    +0.130 C 
ATOM     15  C   LIG    1       -1.074  -0.954   0.539  0.00  0.00    -0.110 C 
ENDBRANCH  13  15
ENDBRANCH  10  13
ENDBRANCH   9  10
ENDBRANCH   1   9
TORSDOF 7
ENDMDL
MODEL      339
REMARK  Name = ZINC000070591894
REMARK                            x       y       z     vdW  Elec       q    Type
REMARK                         _______ _______ _______ _____ _____    ______ ____
ROOT
ATOM      1  N   LIG    1        2.755  -3.402   2.274  0.00  0.00    -0.510 N 
ATOM      2  H   LIG    1        1.998  -4.065   2.195  0.00  0.00    +0.430 HD
ATOM      3  H   LIG    1        2.666  -2.892   3.140  0.00  0.00    +0.430 HD
ENDROOT
BRANCH   1   4
ATOM      4  C   LIG    1        4.037  -4.120   2.258  0.00  0.00    +0.170 C 
ATOM      5  C   LIG    1        5.178  -3.130   2.503  0.00  0.00    +0.090 C 
BRANCH   4   6
ATOM      6  C   LIG    1        4.040  -5.184   3.357  0.00  0.00    +0.050 C 
BRANCH   6   7
ATOM      7  C   LIG    1        2.980  -6.242   3.045  0.00  0.00    -0.000 C 
BRANCH   7   8
ATOM      8  C   LIG    1        2.983  -7.306   4.144  0.00  0.00    +0.020 C 
BRANCH   8   9
ATOM      9  C   LIG    1        1.923  -8.365   3.833  0.00  0.00    -0.010 C 
ATOM     10  C   LIG    1        1.926  -9.429   4.932  0.00  0.00    +0.020 C 
ENDBRANCH   8   9
ENDBRANCH   7   8
ENDBRANCH   6   7
ENDBRANCH   4   6
ENDBRANCH   1   4
BRANCH   1  11
ATOM     11  C   LIG    1        2.705  -2.464   1.145  0.00  0.00    +0.250 C 
BRANCH  11  12
ATOM     12  C   LIG    1        1.370  -1.717   1.161  0.00  0.00    +0.040 C 
BRANCH  12  13
ATOM     13  C   LIG    1        1.317  -0.740  -0.015  0.00  0.00    +0.070 C 
BRANCH  13  15
ATOM     14  C   LIG    1       -0.016   1.306   0.009  0.00  0.00    +0.030 C 
ATOM     15  C   LIG    1        0.002  -0.004   0.002  0.00  0.00    -0.070 C 
ENDBRANCH  13  15
ENDBRANCH  12  13
ENDBRANCH  11  12
ENDBRANCH   1  11
TORSDOF 9
ENDMDL
MODEL      340
REMARK  Name = ZINC000070591315
REMARK                            x       y       z     vdW  Elec       q    Type
REMARK                         _______ _______ _______ _____ _____    ______ ____
ROOT
ATOM      1  N   LIG    1       -2.658  -3.451  -2.307  0.00  0.00    -0.510 N 
ATOM      2  H   LIG    1       -1.884  -4.093  -2.235  0.00  0.00    +0.430 HD
ATOM      3  H   LIG    1       -2.583  -2.929  -3.167  0.00  0.00    +0.420 HD
ENDROOT
BRANCH   1   4
ATOM      4  C   LIG    1       -3.920  -4.202  -2.299  0.00  0.00    +0.160 C 
ATOM      5  C   LIG    1       -5.088  -3.241  -2.533  0.00  0.00    +0.030 C 
ATOM      6  C   LIG    1       -6.335  -4.039  -2.919  0.00  0.00    +0.030 C 
ATOM      7  C   LIG    1       -6.922  -4.704  -1.673  0.00  0.00    +0.010 C 
ATOM      8  C   LIG    1       -6.068  -5.915  -1.292  0.00  0.00    +0.000 C 
ATOM      9  C   LIG    1       -5.728  -6.716  -2.550  0.00  0.00    +0.010 C 
ATOM     10  C   LIG    1       -4.225  -6.627  -2.821  0.00  0.00    +0.030 C 
ATOM     11  C   LIG    1       -3.894  -5.254  -3.410  0.00  0.00    +0.040 C 
ENDBRANCH   1   4
BRANCH   1  12
ATOM     12  C   LIG    1       -2.633  -2.524  -1.168  0.00  0.00    +0.250 C 
BRANCH  12  13
ATOM     13  C   LIG    1       -1.319  -1.741  -1.176  0.00  0.00    +0.040 C 
BRANCH  13  14
ATOM     14  C   LIG    1       -1.293  -0.775   0.010  0.00  0.00    +0.070 C 
BRANCH  14  16
ATOM     15  C   LIG    1       -0.016   1.306   0.009  0.00  0.00    +0.030 C 
ATOM     16  C   LIG    1        0.002  -0.004   0.002  0.00  0.00    -0.070 C 
ENDBRANCH  14  16
ENDBRANCH  13  14
ENDBRANCH  12  13
ENDBRANCH   1  12
TORSDOF 5
ENDMDL
MODEL      341
REMARK  Name = ZINC000070591893
REMARK                            x       y       z     vdW  Elec       q    Type
REMARK                         _______ _______ _______ _____ _____    ______ ____
ROOT
ATOM      1  N   LIG    1        2.755  -3.402   2.274  0.00  0.00    -0.510 N 
ATOM      2  H   LIG    1        1.998  -4.065   2.195  0.00  0.00    +0.430 HD
ATOM      3  H   LIG    1        2.666  -2.892   3.140  0.00  0.00    +0.430 HD
ENDROOT
BRANCH   1   4
ATOM      4  C   LIG    1        4.037  -4.120   2.258  0.00  0.00    +0.170 C 
ATOM      5  C   LIG    1        4.118  -4.991   1.003  0.00  0.00    +0.090 C 
BRANCH   4   6
ATOM      6  C   LIG    1        4.142  -5.005   3.501  0.00  0.00    +0.050 C 
BRANCH   6   7
ATOM      7  C   LIG    1        4.186  -4.124   4.752  0.00  0.00    -0.000 C 
BRANCH   7   8
ATOM      8  C   LIG    1        4.291  -5.009   5.995  0.00  0.00    +0.020 C 
BRANCH   8   9
ATOM      9  C   LIG    1        4.336  -4.129   7.246  0.00  0.00    -0.010 C 
ATOM     10  C   LIG    1        4.441  -5.014   8.489  0.00  0.00    +0.020 C 
ENDBRANCH   8   9
ENDBRANCH   7   8
ENDBRANCH   6   7
ENDBRANCH   4   6
ENDBRANCH   1   4
BRANCH   1  11
ATOM     11  C   LIG    1        2.705  -2.464   1.145  0.00  0.00    +0.250 C 
BRANCH  11  12
ATOM     12  C   LIG    1        1.370  -1.717   1.161  0.00  0.00    +0.040 C 
BRANCH  12  13
ATOM     13  C   LIG    1        1.317  -0.740  -0.015  0.00  0.00    +0.070 C 
BRANCH  13  15
ATOM     14  C   LIG    1       -0.016   1.306   0.009  0.00  0.00    +0.030 C 
ATOM     15  C   LIG    1        0.002  -0.004   0.002  0.00  0.00    -0.070 C 
ENDBRANCH  13  15
ENDBRANCH  12  13
ENDBRANCH  11  12
ENDBRANCH   1  11
TORSDOF 9
ENDMDL
MODEL      342
REMARK  Name = ZINC000235259810
REMARK                            x       y       z     vdW  Elec       q    Type
REMARK                         _______ _______ _______ _____ _____    ______ ____
ROOT
ATOM      1  N   LIG    1        4.143  -5.127   3.433  0.00  0.00    -0.510 N 
ATOM      2  H   LIG    1        3.386  -5.789   3.354  0.00  0.00    +0.430 HD
ATOM      3  H   LIG    1        4.054  -4.616   4.299  0.00  0.00    +0.430 HD
ENDROOT
BRANCH   1   4
ATOM      4  C   LIG    1        5.425  -5.844   3.417  0.00  0.00    +0.160 C 
ATOM      5  C   LIG    1        5.498  -6.767   2.183  0.00  0.00    +0.050 C 
ATOM      6  C   LIG    1        6.238  -8.028   2.696  0.00  0.00    +0.050 C 
ATOM      7  C   LIG    1        5.673  -8.197   4.128  0.00  0.00    +0.040 C 
ATOM      8  C   LIG    1        5.537  -6.752   4.654  0.00  0.00    -0.020 C 
ATOM      9  C   LIG    1        6.771  -6.374   5.475  0.00  0.00    +0.050 C 
ENDBRANCH   1   4
BRANCH   1  10
ATOM     10  C   LIG    1        4.093  -4.188   2.304  0.00  0.00    +0.250 C 
BRANCH  10  11
ATOM     11  C   LIG    1        2.757  -3.441   2.321  0.00  0.00    +0.030 C 
BRANCH  11  12
ATOM     12  C   LIG    1        2.705  -2.464   1.145  0.00  0.00    +0.020 C 
BRANCH  12  13
ATOM     13  C   LIG    1        1.370  -1.717   1.161  0.00  0.00    +0.020 C 
BRANCH  13  14
ATOM     14  C   LIG    1        1.317  -0.740  -0.015  0.00  0.00    +0.050 C 
BRANCH  14  16
ATOM     15  C   LIG    1       -0.016   1.306   0.009  0.00  0.00    +0.020 C 
ATOM     16  C   LIG    1        0.002  -0.004   0.002  0.00  0.00    -0.060 C 
ENDBRANCH  14  16
ENDBRANCH  13  14
ENDBRANCH  12  13
ENDBRANCH  11  12
ENDBRANCH  10  11
ENDBRANCH   1  10
TORSDOF 7
ENDMDL
MODEL      343
REMARK  Name = ZINC000235265972
REMARK                            x       y       z     vdW  Elec       q    Type
REMARK                         _______ _______ _______ _____ _____    ______ ____
ROOT
ATOM      1  N   LIG    1        4.143  -5.127   3.433  0.00  0.00    -0.510 N 
ATOM      2  H   LIG    1        3.386  -5.789   3.354  0.00  0.00    +0.430 HD
ATOM      3  H   LIG    1        4.054  -4.616   4.299  0.00  0.00    +0.430 HD
ENDROOT
BRANCH   1   4
ATOM      4  C   LIG    1        5.425  -5.844   3.417  0.00  0.00    +0.160 C 
ATOM      5  C   LIG    1        6.581  -4.867   3.715  0.00  0.00    +0.050 C 
ATOM      6  C   LIG    1        7.566  -5.695   4.575  0.00  0.00    +0.040 C 
ATOM      7  C   LIG    1        6.619  -6.537   5.466  0.00  0.00    +0.040 C 
ATOM      8  C   LIG    1        5.448  -6.906   4.529  0.00  0.00    +0.000 C 
ATOM      9  C   LIG    1        4.130  -6.884   5.305  0.00  0.00    +0.030 C 
ENDBRANCH   1   4
BRANCH   1  10
ATOM     10  C   LIG    1        4.093  -4.188   2.304  0.00  0.00    +0.250 C 
BRANCH  10  11
ATOM     11  C   LIG    1        2.757  -3.441   2.321  0.00  0.00    +0.030 C 
BRANCH  11  12
ATOM     12  C   LIG    1        2.705  -2.464   1.145  0.00  0.00    +0.020 C 
BRANCH  12  13
ATOM     13  C   LIG    1        1.370  -1.717   1.161  0.00  0.00    +0.020 C 
BRANCH  13  14
ATOM     14  C   LIG    1        1.317  -0.740  -0.015  0.00  0.00    +0.050 C 
BRANCH  14  16
ATOM     15  C   LIG    1       -0.016   1.306   0.009  0.00  0.00    +0.020 C 
ATOM     16  C   LIG    1        0.002  -0.004   0.002  0.00  0.00    -0.060 C 
ENDBRANCH  14  16
ENDBRANCH  13  14
ENDBRANCH  12  13
ENDBRANCH  11  12
ENDBRANCH  10  11
ENDBRANCH   1  10
TORSDOF 7
ENDMDL
MODEL      344
REMARK  Name = ZINC000235203826
REMARK                            x       y       z     vdW  Elec       q    Type
REMARK                         _______ _______ _______ _____ _____    ______ ____
ROOT
ATOM      1  N   LIG    1        4.143  -5.127   3.433  0.00  0.00    -0.510 N 
ATOM      2  H   LIG    1        3.386  -5.789   3.354  0.00  0.00    +0.420 HD
ATOM      3  H   LIG    1        4.054  -4.616   4.299  0.00  0.00    +0.430 HD
ENDROOT
BRANCH   1   4
ATOM      4  C   LIG    1        5.425  -5.844   3.417  0.00  0.00    +0.170 C 
ATOM      5  C   LIG    1        5.506  -6.715   2.162  0.00  0.00    +0.080 C 
BRANCH   4   6
ATOM      6  C   LIG    1        5.530  -6.729   4.660  0.00  0.00    -0.080 C 
ATOM      7  C   LIG    1        5.449  -5.857   5.915  0.00  0.00    +0.040 C 
ATOM      8  C   LIG    1        6.865  -7.476   4.644  0.00  0.00    +0.070 C 
ATOM      9  C   LIG    1        4.380  -7.739   4.666  0.00  0.00    +0.040 C 
ENDBRANCH   4   6
ENDBRANCH   1   4
BRANCH   1  10
ATOM     10  C   LIG    1        4.093  -4.188   2.304  0.00  0.00    +0.250 C 
BRANCH  10  11
ATOM     11  C   LIG    1        2.757  -3.441   2.321  0.00  0.00    +0.030 C 
BRANCH  11  12
ATOM     12  C   LIG    1        2.705  -2.464   1.145  0.00  0.00    +0.020 C 
BRANCH  12  13
ATOM     13  C   LIG    1        1.370  -1.717   1.161  0.00  0.00    +0.020 C 
BRANCH  13  14
ATOM     14  C   LIG    1        1.317  -0.740  -0.015  0.00  0.00    +0.050 C 
BRANCH  14  16
ATOM     15  C   LIG    1       -0.016   1.306   0.009  0.00  0.00    +0.020 C 
ATOM     16  C   LIG    1        0.002  -0.004   0.002  0.00  0.00    -0.060 C 
ENDBRANCH  14  16
ENDBRANCH  13  14
ENDBRANCH  12  13
ENDBRANCH  11  12
ENDBRANCH  10  11
ENDBRANCH   1  10
TORSDOF 8
ENDMDL
MODEL      345
REMARK  Name = ZINC000235554906
REMARK                            x       y       z     vdW  Elec       q    Type
REMARK                         _______ _______ _______ _____ _____    ______ ____
ROOT
ATOM      1  N   LIG    1        4.143  -5.127   3.433  0.00  0.00    -0.510 N 
ATOM      2  H   LIG    1        3.386  -5.789   3.354  0.00  0.00    +0.430 HD
ATOM      3  H   LIG    1        4.054  -4.616   4.299  0.00  0.00    +0.430 HD
ENDROOT
BRANCH   1   4
ATOM      4  C   LIG    1        5.425  -5.844   3.417  0.00  0.00    +0.160 C 
ATOM      5  C   LIG    1        6.581  -4.867   3.715  0.00  0.00    +0.060 C 
ATOM      6  C   LIG    1        6.824  -5.018   5.237  0.00  0.00    +0.020 C 
ATOM      7  C   LIG    1        6.619  -6.537   5.466  0.00  0.00    +0.050 C 
ATOM      8  C   LIG    1        5.448  -6.906   4.529  0.00  0.00    -0.020 C 
ATOM      9  C   LIG    1        5.678  -8.294   3.928  0.00  0.00    +0.050 C 
ENDBRANCH   1   4
BRANCH   1  10
ATOM     10  C   LIG    1        4.093  -4.188   2.304  0.00  0.00    +0.250 C 
BRANCH  10  11
ATOM     11  C   LIG    1        2.757  -3.441   2.321  0.00  0.00    +0.030 C 
BRANCH  11  12
ATOM     12  C   LIG    1        2.705  -2.464   1.145  0.00  0.00    +0.020 C 
BRANCH  12  13
ATOM     13  C   LIG    1        1.370  -1.717   1.161  0.00  0.00    +0.020 C 
BRANCH  13  14
ATOM     14  C   LIG    1        1.317  -0.740  -0.015  0.00  0.00    +0.050 C 
BRANCH  14  16
ATOM     15  C   LIG    1       -0.016   1.306   0.009  0.00  0.00    +0.020 C 
ATOM     16  C   LIG    1        0.002  -0.004   0.002  0.00  0.00    -0.060 C 
ENDBRANCH  14  16
ENDBRANCH  13  14
ENDBRANCH  12  13
ENDBRANCH  11  12
ENDBRANCH  10  11
ENDBRANCH   1  10
TORSDOF 7
ENDMDL
MODEL      346
REMARK  Name = ZINC000235510689
REMARK                            x       y       z     vdW  Elec       q    Type
REMARK                         _______ _______ _______ _____ _____    ______ ____
ROOT
ATOM      1  N   LIG    1        4.143  -5.127   3.433  0.00  0.00    -0.510 N 
ATOM      2  H   LIG    1        3.386  -5.789   3.354  0.00  0.00    +0.430 HD
ATOM      3  H   LIG    1        4.054  -4.616   4.299  0.00  0.00    +0.420 HD
ENDROOT
BRANCH   1   4
ATOM      4  C   LIG    1        5.425  -5.844   3.417  0.00  0.00    +0.170 C 
ATOM      5  C   LIG    1        6.566  -4.854   3.662  0.00  0.00    +0.080 C 
BRANCH   4   6
ATOM      6  C   LIG    1        5.428  -6.908   4.516  0.00  0.00    -0.080 C 
ATOM      7  C   LIG    1        5.237  -6.236   5.877  0.00  0.00    +0.040 C 
ATOM      8  C   LIG    1        6.763  -7.655   4.499  0.00  0.00    +0.070 C 
ATOM      9  C   LIG    1        4.287  -7.897   4.271  0.00  0.00    +0.040 C 
ENDBRANCH   4   6
ENDBRANCH   1   4
BRANCH   1  10
ATOM     10  C   LIG    1        4.093  -4.188   2.304  0.00  0.00    +0.250 C 
BRANCH  10  11
ATOM     11  C   LIG    1        2.757  -3.441   2.321  0.00  0.00    +0.030 C 
BRANCH  11  12
ATOM     12  C   LIG    1        2.705  -2.464   1.145  0.00  0.00    +0.020 C 
BRANCH  12  13
ATOM     13  C   LIG    1        1.370  -1.717   1.161  0.00  0.00    +0.020 C 
BRANCH  13  14
ATOM     14  C   LIG    1        1.317  -0.740  -0.015  0.00  0.00    +0.050 C 
BRANCH  14  16
ATOM     15  C   LIG    1       -0.016   1.306   0.009  0.00  0.00    +0.020 C 
ATOM     16  C   LIG    1        0.002  -0.004   0.002  0.00  0.00    -0.060 C 
ENDBRANCH  14  16
ENDBRANCH  13  14
ENDBRANCH  12  13
ENDBRANCH  11  12
ENDBRANCH  10  11
ENDBRANCH   1  10
TORSDOF 8
ENDMDL
MODEL      347
REMARK  Name = ZINC000235572225
REMARK                            x       y       z     vdW  Elec       q    Type
REMARK                         _______ _______ _______ _____ _____    ______ ____
ROOT
ATOM      1  N   LIG    1        4.143  -5.127   3.433  0.00  0.00    -0.510 N 
ATOM      2  H   LIG    1        3.386  -5.789   3.354  0.00  0.00    +0.430 HD
ATOM      3  H   LIG    1        4.054  -4.616   4.299  0.00  0.00    +0.430 HD
ENDROOT
BRANCH   1   4
ATOM      4  C   LIG    1        5.425  -5.844   3.417  0.00  0.00    +0.160 C 
ATOM      5  C   LIG    1        5.498  -6.767   2.183  0.00  0.00    +0.050 C 
ATOM      6  C   LIG    1        6.238  -8.028   2.696  0.00  0.00    +0.040 C 
ATOM      7  C   LIG    1        5.673  -8.197   4.128  0.00  0.00    +0.040 C 
ATOM      8  C   LIG    1        5.537  -6.752   4.654  0.00  0.00    +0.000 C 
ATOM      9  C   LIG    1        4.278  -6.624   5.514  0.00  0.00    +0.030 C 
ENDBRANCH   1   4
BRANCH   1  10
ATOM     10  C   LIG    1        4.093  -4.188   2.304  0.00  0.00    +0.250 C 
BRANCH  10  11
ATOM     11  C   LIG    1        2.757  -3.441   2.321  0.00  0.00    +0.030 C 
BRANCH  11  12
ATOM     12  C   LIG    1        2.705  -2.464   1.145  0.00  0.00    +0.020 C 
BRANCH  12  13
ATOM     13  C   LIG    1        1.370  -1.717   1.161  0.00  0.00    +0.020 C 
BRANCH  13  14
ATOM     14  C   LIG    1        1.317  -0.740  -0.015  0.00  0.00    +0.050 C 
BRANCH  14  16
ATOM     15  C   LIG    1       -0.016   1.306   0.009  0.00  0.00    +0.020 C 
ATOM     16  C   LIG    1        0.002  -0.004   0.002  0.00  0.00    -0.060 C 
ENDBRANCH  14  16
ENDBRANCH  13  14
ENDBRANCH  12  13
ENDBRANCH  11  12
ENDBRANCH  10  11
ENDBRANCH   1  10
TORSDOF 7
ENDMDL
MODEL      348
REMARK  Name = ZINC001208736122
REMARK                            x       y       z     vdW  Elec       q    Type
REMARK                         _______ _______ _______ _____ _____    ______ ____
ROOT
ATOM      1  N   LIG    1       -3.921  -4.241  -2.347  0.00  0.00    -0.390 N 
ATOM      2  C   LIG    1       -5.042  -3.318  -2.571  0.00  0.00    +0.300 C 
ATOM      3  H   LIG    1       -4.035  -4.697  -1.454  0.00  0.00    +0.420 HD
ENDROOT
BRANCH   1   4
ATOM      4  C   LIG    1       -2.659  -3.489  -2.355  0.00  0.00    +0.250 C 
BRANCH   4   5
ATOM      5  C   LIG    1       -2.633  -2.524  -1.168  0.00  0.00    +0.030 C 
BRANCH   5   6
ATOM      6  C   LIG    1       -1.319  -1.741  -1.176  0.00  0.00    +0.040 C 
BRANCH   6   7
ATOM      7  C   LIG    1       -1.293  -0.775   0.010  0.00  0.00    +0.050 C 
BRANCH   7   9
ATOM      8  C   LIG    1       -0.016   1.306   0.009  0.00  0.00    +0.020 C 
ATOM      9  C   LIG    1        0.002  -0.004   0.002  0.00  0.00    -0.060 C 
ENDBRANCH   7   9
ENDBRANCH   6   7
ENDBRANCH   5   6
ENDBRANCH   4   5
ENDBRANCH   1   4
BRANCH   1  10
ATOM     10  C   LIG    1       -3.897  -5.251  -3.413  0.00  0.00    +0.250 C 
BRANCH  10  11
ATOM     11  C   LIG    1       -5.156  -6.115  -3.327  0.00  0.00    +0.030 C 
BRANCH  11  12
ATOM     12  C   LIG    1       -5.130  -7.167  -4.438  0.00  0.00    +0.030 C 
BRANCH  12  13
ATOM     13  C   LIG    1       -6.390  -8.031  -4.351  0.00  0.00    -0.030 C 
ATOM     14  C   LIG    1       -6.375  -8.824  -3.042  0.00  0.00    +0.020 C 
ATOM     15  C   LIG    1       -6.426  -9.000  -5.534  0.00  0.00    +0.030 C 
ENDBRANCH  12  13
ENDBRANCH  11  12
ENDBRANCH  10  11
ENDBRANCH   1  10
TORSDOF 9
ENDMDL
MODEL      349
REMARK  Name = ZINC001208732565
REMARK                            x       y       z     vdW  Elec       q    Type
REMARK                         _______ _______ _______ _____ _____    ______ ____
ROOT
ATOM      1  N   LIG    1        1.176  -2.125   0.645  0.00  0.00    -0.380 N 
ATOM      2  H   LIG    1        0.622  -2.968   0.677  0.00  0.00    +0.420 HD
ENDROOT
BRANCH   1   3
ATOM      3  C   LIG    1        0.989  -1.370   1.891  0.00  0.00    +0.060 C 
ATOM      4  C   LIG    1        2.241  -0.537   2.176  0.00  0.00    +0.090 C 
ATOM      5  C   LIG    1        0.751  -2.343   3.047  0.00  0.00    +0.080 C 
ATOM      6  C   LIG    1       -0.219  -0.442   1.749  0.00  0.00    +0.080 C 
ENDBRANCH   1   3
BRANCH   1   7
ATOM      7  C   LIG    1        0.750  -1.302  -0.495  0.00  0.00    +0.300 C 
BRANCH   7   9
ATOM      8  C   LIG    1       -1.391  -0.134  -0.598  0.00  0.00    +0.120 C 
ATOM      9  C   LIG    1       -0.755  -1.278  -0.563  0.00  0.00    -0.100 C 
ENDBRANCH   7   9
ENDBRANCH   1   7
BRANCH   1  10
ATOM     10  C   LIG    1        2.594  -2.476   0.493  0.00  0.00    +0.260 C 
BRANCH  10  11
ATOM     11  C   LIG    1        2.996  -3.462   1.593  0.00  0.00    +0.070 C 
BRANCH  11  12
ATOM     12  C   LIG    1        4.396  -3.956   1.337  0.00  0.00    -0.070 C 
ATOM     13  C   LIG    1        5.305  -3.864   2.276  0.00  0.00    +0.000 C 
BRANCH  13  14
ATOM     14  C   LIG    1        4.910  -3.439   3.668  0.00  0.00    +0.040 C 
ATOM     15  C   LIG    1        5.409  -4.475   4.678  0.00  0.00    +0.030 C 
ENDBRANCH  13  14
ENDBRANCH  11  12
ENDBRANCH  10  11
ENDBRANCH   1  10
TORSDOF 7
ENDMDL
MODEL      350
REMARK  Name = ZINC001208729771
REMARK                            x       y       z     vdW  Elec       q    Type
REMARK                         _______ _______ _______ _____ _____    ______ ____
ROOT
ATOM      1  N   LIG    1       -4.202  -4.060  -2.517  0.00  0.00    -0.390 N 
ATOM      2  C   LIG    1       -5.464  -3.314  -2.612  0.00  0.00    +0.310 C 
ATOM      3  H   LIG    1       -4.144  -4.511  -1.616  0.00  0.00    +0.420 HD
ENDROOT
BRANCH   1   4
ATOM      4  C   LIG    1       -3.073  -3.133  -2.674  0.00  0.00    +0.250 C 
BRANCH   4   5
ATOM      5  C   LIG    1       -3.053  -2.151  -1.501  0.00  0.00    +0.030 C 
BRANCH   5   6
ATOM      6  C   LIG    1       -1.877  -1.186  -1.664  0.00  0.00    +0.040 C 
BRANCH   6   7
ATOM      7  C   LIG    1       -1.856  -0.205  -0.490  0.00  0.00    +0.050 C 
BRANCH   7   9
ATOM      8  C   LIG    1       -0.906   2.039  -0.645  0.00  0.00    +0.020 C 
ATOM      9  C   LIG    1       -0.698   0.746  -0.651  0.00  0.00    -0.060 C 
ENDBRANCH   7   9
ENDBRANCH   6   7
ENDBRANCH   5   6
ENDBRANCH   4   5
ENDBRANCH   1   4
BRANCH   1  10
ATOM     10  C   LIG    1       -4.153  -5.076  -3.577  0.00  0.00    +0.260 C 
BRANCH  10  11
ATOM     11  C   LIG    1       -5.253  -6.112  -3.342  0.00  0.00    +0.070 C 
BRANCH  11  12
ATOM     12  C   LIG    1       -5.203  -7.154  -4.430  0.00  0.00    -0.070 C 
ATOM     13  C   LIG    1       -5.150  -8.425  -4.117  0.00  0.00    +0.010 C 
BRANCH  13  14
ATOM     14  C   LIG    1       -5.311  -8.855  -2.682  0.00  0.00    +0.040 C 
ATOM     15  C   LIG    1       -6.422  -9.903  -2.585  0.00  0.00    +0.030 C 
ENDBRANCH  13  14
ENDBRANCH  11  12
ENDBRANCH  10  11
ENDBRANCH   1  10
TORSDOF 9
ENDMDL
MODEL      351
REMARK  Name = ZINC001208736872
REMARK                            x       y       z     vdW  Elec       q    Type
REMARK                         _______ _______ _______ _____ _____    ______ ____
ROOT
ATOM      1  N   LIG    1        1.228  -2.023   0.697  0.00  0.00    -0.380 N 
ATOM      2  H   LIG    1        0.660  -2.856   0.722  0.00  0.00    +0.420 HD
ENDROOT
BRANCH   1   3
ATOM      3  C   LIG    1        1.050  -1.271   1.947  0.00  0.00    +0.060 C 
ATOM      4  C   LIG    1        2.317  -0.465   2.242  0.00  0.00    +0.090 C 
ATOM      5  C   LIG    1        0.786  -2.246   3.096  0.00  0.00    +0.080 C 
ATOM      6  C   LIG    1       -0.139  -0.318   1.803  0.00  0.00    +0.080 C 
ENDBRANCH   1   3
BRANCH   1   7
ATOM      7  C   LIG    1        0.822  -1.186  -0.440  0.00  0.00    +0.300 C 
BRANCH   7   9
ATOM      8  C   LIG    1       -1.298   0.021  -0.534  0.00  0.00    +0.120 C 
ATOM      9  C   LIG    1       -0.682  -1.135  -0.513  0.00  0.00    -0.100 C 
ENDBRANCH   7   9
ENDBRANCH   1   7
BRANCH   1  10
ATOM     10  C   LIG    1        2.641  -2.398   0.549  0.00  0.00    +0.250 C 
BRANCH  10  11
ATOM     11  C   LIG    1        3.022  -3.394   1.646  0.00  0.00    +0.030 C 
BRANCH  11  12
ATOM     12  C   LIG    1        4.436  -3.920   1.389  0.00  0.00    +0.030 C 
BRANCH  12  13
ATOM     13  C   LIG    1        4.816  -4.916   2.486  0.00  0.00    -0.030 C 
ATOM     14  C   LIG    1        6.273  -5.347   2.300  0.00  0.00    +0.030 C 
ATOM     15  C   LIG    1        3.906  -6.143   2.398  0.00  0.00    +0.020 C 
ENDBRANCH  12  13
ENDBRANCH  11  12
ENDBRANCH  10  11
ENDBRANCH   1  10
TORSDOF 7
ENDMDL
MODEL      352
REMARK  Name = ZINC000624036986
REMARK                            x       y       z     vdW  Elec       q    Type
REMARK                         _______ _______ _______ _____ _____    ______ ____
ROOT
ATOM      1  N   LIG    1       -3.754  -1.601  -1.393  0.00  0.00    -0.510 N 
ATOM      2  H   LIG    1       -3.684  -1.206  -2.319  0.00  0.00    +0.430 HD
ATOM      3  H   LIG    1       -3.723  -0.861  -0.708  0.00  0.00    +0.430 HD
ENDROOT
BRANCH   1   4
ATOM      4  C   LIG    1       -2.633  -2.524  -1.168  0.00  0.00    +0.170 C 
ATOM      5  C   LIG    1       -2.607  -3.575  -2.279  0.00  0.00    +0.090 C 
BRANCH   4   6
ATOM      6  C   LIG    1       -1.319  -1.741  -1.176  0.00  0.00    +0.060 C 
BRANCH   6   7
ATOM      7  C   LIG    1       -1.293  -0.775   0.010  0.00  0.00    +0.050 C 
BRANCH   7   9
ATOM      8  C   LIG    1       -0.016   1.306   0.009  0.00  0.00    +0.040 C 
ATOM      9  C   LIG    1        0.002  -0.004   0.002  0.00  0.00    -0.060 C 
ENDBRANCH   7   9
ENDBRANCH   6   7
ENDBRANCH   4   6
ENDBRANCH   1   4
BRANCH   1  10
ATOM     10  C   LIG    1       -5.022  -2.332  -1.266  0.00  0.00    +0.250 C 
BRANCH  10  11
ATOM     11  C   LIG    1       -6.190  -1.371  -1.500  0.00  0.00    +0.040 C 
BRANCH  11  12
ATOM     12  C   LIG    1       -7.511  -2.131  -1.368  0.00  0.00    -0.030 C 
ATOM     13  C   LIG    1       -7.617  -2.730   0.036  0.00  0.00    +0.040 C 
ATOM     14  C   LIG    1       -7.558  -3.254  -2.406  0.00  0.00    +0.040 C 
BRANCH  12  15
ATOM     15  C   LIG    1       -8.661  -1.185  -1.599  0.00  0.00    -0.060 C 
ATOM     16  C   LIG    1       -9.504  -1.405  -2.577  0.00  0.00    +0.040 C 
ENDBRANCH  12  15
ENDBRANCH  11  12
ENDBRANCH  10  11
ENDBRANCH   1  10
TORSDOF 8
ENDMDL
MODEL      353
REMARK  Name = ZINC000624036985
REMARK                            x       y       z     vdW  Elec       q    Type
REMARK                         _______ _______ _______ _____ _____    ______ ____
ROOT
ATOM      1  N   LIG    1       -2.688  -3.376   0.027  0.00  0.00    -0.510 N 
ATOM      2  H   LIG    1       -2.552  -2.809   0.851  0.00  0.00    +0.430 HD
ATOM      3  H   LIG    1       -1.962  -4.074  -0.024  0.00  0.00    +0.430 HD
ENDROOT
BRANCH   1   4
ATOM      4  C   LIG    1       -2.633  -2.524  -1.168  0.00  0.00    +0.170 C 
ATOM      5  C   LIG    1       -2.714  -3.398  -2.421  0.00  0.00    +0.090 C 
BRANCH   4   6
ATOM      6  C   LIG    1       -1.319  -1.741  -1.176  0.00  0.00    +0.060 C 
BRANCH   6   7
ATOM      7  C   LIG    1       -1.293  -0.775   0.010  0.00  0.00    +0.040 C 
BRANCH   7   9
ATOM      8  C   LIG    1       -0.016   1.306   0.009  0.00  0.00    +0.050 C 
ATOM      9  C   LIG    1        0.002  -0.004   0.002  0.00  0.00    -0.070 C 
ENDBRANCH   7   9
ENDBRANCH   6   7
ENDBRANCH   4   6
ENDBRANCH   1   4
BRANCH   1  10
ATOM     10  C   LIG    1       -3.998  -4.036   0.098  0.00  0.00    +0.250 C 
BRANCH  10  11
ATOM     11  C   LIG    1       -4.056  -4.923   1.343  0.00  0.00    +0.040 C 
BRANCH  11  12
ATOM     12  C   LIG    1       -5.420  -5.611   1.417  0.00  0.00    -0.030 C 
ATOM     13  C   LIG    1       -5.626  -6.471   0.168  0.00  0.00    +0.040 C 
ATOM     14  C   LIG    1       -6.522  -4.552   1.495  0.00  0.00    +0.040 C 
BRANCH  12  15
ATOM     15  C   LIG    1       -5.476  -6.485   2.643  0.00  0.00    -0.060 C 
ATOM     16  C   LIG    1       -6.382  -6.265   3.564  0.00  0.00    +0.040 C 
ENDBRANCH  12  15
ENDBRANCH  11  12
ENDBRANCH  10  11
ENDBRANCH   1  10
TORSDOF 8
ENDMDL
MODEL      354
REMARK  Name = ZINC000252807175
REMARK                            x       y       z     vdW  Elec       q    Type
REMARK                         _______ _______ _______ _____ _____    ______ ____
ROOT
ATOM      1  N   LIG    1       -3.754  -1.601  -1.393  0.00  0.00    -0.510 N 
ATOM      2  H   LIG    1       -3.684  -1.206  -2.319  0.00  0.00    +0.430 HD
ATOM      3  H   LIG    1       -3.723  -0.861  -0.708  0.00  0.00    +0.420 HD
ENDROOT
BRANCH   1   4
ATOM      4  C   LIG    1       -5.022  -2.332  -1.266  0.00  0.00    +0.160 C 
ATOM      5  C   LIG    1       -5.186  -2.824   0.173  0.00  0.00    +0.040 C 
ATOM      6  C   LIG    1       -6.507  -3.584   0.305  0.00  0.00    +0.050 C 
ATOM      7  C   LIG    1       -7.668  -2.655  -0.051  0.00  0.00    -0.020 C 
ATOM      8  C   LIG    1       -7.505  -2.162  -1.490  0.00  0.00    +0.060 C 
ATOM      9  C   LIG    1       -8.989  -3.415   0.081  0.00  0.00    +0.030 C 
ATOM     10  C   LIG    1       -6.184  -1.402  -1.622  0.00  0.00    +0.040 C 
ENDBRANCH   1   4
BRANCH   1  11
ATOM     11  C   LIG    1       -2.633  -2.524  -1.168  0.00  0.00    +0.160 C 
ATOM     12  C   LIG    1       -2.607  -3.575  -2.279  0.00  0.00    +0.090 C 
BRANCH  11  13
ATOM     13  C   LIG    1       -1.319  -1.741  -1.176  0.00  0.00    +0.060 C 
BRANCH  13  14
ATOM     14  C   LIG    1       -1.293  -0.775   0.010  0.00  0.00    +0.050 C 
BRANCH  14  16
ATOM     15  C   LIG    1       -0.016   1.306   0.009  0.00  0.00    +0.040 C 
ATOM     16  C   LIG    1        0.002  -0.004   0.002  0.00  0.00    -0.050 C 
ENDBRANCH  14  16
ENDBRANCH  13  14
ENDBRANCH  11  13
ENDBRANCH   1  11
TORSDOF 5
ENDMDL
MODEL      355
REMARK  Name = ZINC000252807176
REMARK                            x       y       z     vdW  Elec       q    Type
REMARK                         _______ _______ _______ _____ _____    ______ ____
ROOT
ATOM      1  N   LIG    1       -2.629  -3.346   0.080  0.00  0.00    -0.510 N 
ATOM      2  H   LIG    1       -2.025  -4.087   0.404  0.00  0.00    +0.420 HD
ATOM      3  H   LIG    1       -2.325  -3.040  -0.832  0.00  0.00    +0.430 HD
ENDROOT
BRANCH   1   4
ATOM      4  C   LIG    1       -4.010  -3.841  -0.004  0.00  0.00    +0.160 C 
ATOM      5  C   LIG    1       -4.103  -4.910  -1.094  0.00  0.00    +0.040 C 
ATOM      6  C   LIG    1       -5.541  -5.425  -1.181  0.00  0.00    +0.050 C 
ATOM      7  C   LIG    1       -5.949  -6.031   0.163  0.00  0.00    -0.020 C 
ATOM      8  C   LIG    1       -5.855  -4.961   1.254  0.00  0.00    +0.050 C 
ATOM      9  C   LIG    1       -7.387  -6.545   0.076  0.00  0.00    +0.030 C 
ATOM     10  C   LIG    1       -4.417  -4.446   1.341  0.00  0.00    +0.040 C 
ENDBRANCH   1   4
BRANCH   1  11
ATOM     11  C   LIG    1       -2.568  -2.219   1.020  0.00  0.00    +0.160 C 
ATOM     12  C   LIG    1       -3.370  -1.043   0.459  0.00  0.00    +0.090 C 
BRANCH  11  13
ATOM     13  C   LIG    1       -1.111  -1.796   1.216  0.00  0.00    +0.060 C 
BRANCH  13  14
ATOM     14  C   LIG    1       -0.338  -2.929   1.893  0.00  0.00    +0.040 C 
BRANCH  14  16
ATOM     15  C   LIG    1        1.637  -2.554   3.279  0.00  0.00    +0.050 C 
ATOM     16  C   LIG    1        1.098  -2.512   2.086  0.00  0.00    -0.070 C 
ENDBRANCH  14  16
ENDBRANCH  13  14
ENDBRANCH  11  13
ENDBRANCH   1  11
TORSDOF 5
ENDMDL
MODEL      356
REMARK  Name = ZINC001209200379
REMARK                            x       y       z     vdW  Elec       q    Type
REMARK                         _______ _______ _______ _____ _____    ______ ____
ROOT
ATOM      1  N   LIG    1        4.083  -4.204   2.385  0.00  0.00    -0.380 N 
ATOM      2  C   LIG    1        3.971  -5.239   3.419  0.00  0.00    +0.160 C 
ATOM      3  C   LIG    1        5.295  -6.000   3.530  0.00  0.00    +0.060 C 
ATOM      4  C   LIG    1        6.410  -5.019   3.905  0.00  0.00    +0.030 C 
ATOM      5  C   LIG    1        6.468  -3.902   2.859  0.00  0.00    +0.060 C 
ATOM      6  C   LIG    1        3.647  -4.585   4.763  0.00  0.00    +0.070 C 
ATOM      7  C   LIG    1        5.101  -3.220   2.775  0.00  0.00    +0.160 C 
ATOM      8  C   LIG    1        5.152  -2.103   1.731  0.00  0.00    +0.080 C 
ATOM      9  H   LIG    1        4.346  -4.631   1.510  0.00  0.00    +0.420 HD
ENDROOT
BRANCH   1  10
ATOM     10  C   LIG    1        2.787  -3.529   2.228  0.00  0.00    +0.240 C 
BRANCH  10  11
ATOM     11  C   LIG    1        1.707  -4.566   1.911  0.00  0.00    +0.030 C 
BRANCH  11  12
ATOM     12  C   LIG    1        0.388  -3.852   1.608  0.00  0.00    +0.030 C 
BRANCH  12  13
ATOM     13  C   LIG    1       -0.691  -4.888   1.291  0.00  0.00    +0.050 C 
BRANCH  13  15
ATOM     14  C   LIG    1       -2.616  -4.416  -0.135  0.00  0.00    +0.020 C 
ATOM     15  C   LIG    1       -1.990  -4.185   0.993  0.00  0.00    -0.060 C 
ENDBRANCH  13  15
ENDBRANCH  12  13
ENDBRANCH  11  12
ENDBRANCH  10  11
ENDBRANCH   1  10
TORSDOF 5
ENDMDL
MODEL      357
REMARK  Name = ZINC001209162407
REMARK                            x       y       z     vdW  Elec       q    Type
REMARK                         _______ _______ _______ _____ _____    ______ ____
ROOT
ATOM      1  N   LIG    1        2.755  -3.402   2.274  0.00  0.00    -0.390 N 
ATOM      2  C   LIG    1        1.728  -4.438   2.096  0.00  0.00    +0.320 C 
ATOM      3  H   LIG    1        2.584  -2.903   3.134  0.00  0.00    +0.420 HD
ENDROOT
BRANCH   1   4
ATOM      4  C   LIG    1        2.705  -2.464   1.145  0.00  0.00    +0.250 C 
BRANCH   4   5
ATOM      5  C   LIG    1        1.370  -1.717   1.161  0.00  0.00    +0.040 C 
BRANCH   5   6
ATOM      6  C   LIG    1        1.317  -0.740  -0.015  0.00  0.00    +0.070 C 
BRANCH   6   8
ATOM      7  C   LIG    1       -0.016   1.306   0.009  0.00  0.00    +0.030 C 
ATOM      8  C   LIG    1        0.002  -0.004   0.002  0.00  0.00    -0.070 C 
ENDBRANCH   6   8
ENDBRANCH   5   6
ENDBRANCH   4   5
ENDBRANCH   1   4
BRANCH   1   9
ATOM      9  C   LIG    1        4.081  -4.032   2.328  0.00  0.00    +0.250 C 
BRANCH   9  10
ATOM     10  C   LIG    1        4.176  -4.914   3.575  0.00  0.00    +0.030 C 
BRANCH  10  11
ATOM     11  C   LIG    1        5.557  -5.570   3.632  0.00  0.00    +0.020 C 
BRANCH  11  12
ATOM     12  C   LIG    1        5.652  -6.452   4.878  0.00  0.00    +0.020 C 
BRANCH  12  13
ATOM     13  C   LIG    1        7.033  -7.108   4.935  0.00  0.00    +0.000 C 
BRANCH  13  14
ATOM     14  C   LIG    1        7.128  -7.990   6.182  0.00  0.00    -0.010 C 
ATOM     15  C   LIG    1        8.509  -8.646   6.239  0.00  0.00    +0.000 C 
ENDBRANCH  13  14
ENDBRANCH  12  13
ENDBRANCH  11  12
ENDBRANCH  10  11
ENDBRANCH   9  10
ENDBRANCH   1   9
TORSDOF 10
ENDMDL
MODEL      358
REMARK  Name = ZINC001209200377
REMARK                            x       y       z     vdW  Elec       q    Type
REMARK                         _______ _______ _______ _____ _____    ______ ____
ROOT
ATOM      1  N   LIG    1        4.116  -4.076   2.236  0.00  0.00    -0.380 N 
ATOM      2  C   LIG    1        5.109  -3.044   2.561  0.00  0.00    +0.160 C 
ATOM      3  C   LIG    1        6.517  -3.634   2.452  0.00  0.00    +0.060 C 
ATOM      4  C   LIG    1        6.652  -4.802   3.433  0.00  0.00    +0.040 C 
ATOM      5  C   LIG    1        5.565  -5.837   3.132  0.00  0.00    +0.060 C 
ATOM      6  C   LIG    1        4.969  -1.877   1.581  0.00  0.00    +0.080 C 
ATOM      7  C   LIG    1        4.193  -5.165   3.217  0.00  0.00    +0.160 C 
ATOM      8  C   LIG    1        3.102  -6.194   2.918  0.00  0.00    +0.080 C 
ATOM      9  H   LIG    1        4.301  -4.441   1.314  0.00  0.00    +0.420 HD
ENDROOT
BRANCH   1  10
ATOM     10  C   LIG    1        2.771  -3.485   2.266  0.00  0.00    +0.240 C 
BRANCH  10  11
ATOM     11  C   LIG    1        2.468  -2.979   3.678  0.00  0.00    +0.030 C 
BRANCH  11  12
ATOM     12  C   LIG    1        1.091  -2.313   3.696  0.00  0.00    +0.030 C 
BRANCH  12  13
ATOM     13  C   LIG    1        0.787  -1.806   5.107  0.00  0.00    +0.050 C 
BRANCH  13  15
ATOM     14  C   LIG    1       -1.481  -1.554   5.975  0.00  0.00    +0.020 C 
ATOM     15  C   LIG    1       -0.570  -1.151   5.125  0.00  0.00    -0.060 C 
ENDBRANCH  13  15
ENDBRANCH  12  13
ENDBRANCH  11  12
ENDBRANCH  10  11
ENDBRANCH   1  10
TORSDOF 5
ENDMDL
MODEL      359
REMARK  Name = ZINC001209200380
REMARK                            x       y       z     vdW  Elec       q    Type
REMARK                         _______ _______ _______ _____ _____    ______ ____
ROOT
ATOM      1  N   LIG    1        4.039  -4.159   2.305  0.00  0.00    -0.380 N 
ATOM      2  C   LIG    1        4.039  -5.181   3.357  0.00  0.00    +0.160 C 
ATOM      3  C   LIG    1        5.340  -5.985   3.293  0.00  0.00    +0.060 C 
ATOM      4  C   LIG    1        6.528  -5.041   3.496  0.00  0.00    +0.030 C 
ATOM      5  C   LIG    1        6.476  -3.935   2.438  0.00  0.00    +0.060 C 
ATOM      6  C   LIG    1        2.849  -6.122   3.154  0.00  0.00    +0.090 C 
ATOM      7  C   LIG    1        5.133  -3.208   2.536  0.00  0.00    +0.160 C 
ATOM      8  C   LIG    1        4.988  -2.591   3.929  0.00  0.00    +0.070 C 
ATOM      9  H   LIG    1        4.165  -4.601   1.407  0.00  0.00    +0.420 HD
ENDROOT
BRANCH   1  10
ATOM     10  C   LIG    1        2.757  -3.441   2.321  0.00  0.00    +0.240 C 
BRANCH  10  11
ATOM     11  C   LIG    1        2.705  -2.464   1.145  0.00  0.00    +0.030 C 
BRANCH  11  12
ATOM     12  C   LIG    1        1.370  -1.717   1.161  0.00  0.00    +0.040 C 
BRANCH  12  13
ATOM     13  C   LIG    1        1.317  -0.740  -0.015  0.00  0.00    +0.050 C 
BRANCH  13  15
ATOM     14  C   LIG    1       -0.016   1.306   0.009  0.00  0.00    +0.020 C 
ATOM     15  C   LIG    1        0.002  -0.004   0.002  0.00  0.00    -0.060 C 
ENDBRANCH  13  15
ENDBRANCH  12  13
ENDBRANCH  11  12
ENDBRANCH  10  11
ENDBRANCH   1  10
TORSDOF 5
ENDMDL
MODEL      360
REMARK  Name = ZINC001209201237
REMARK                            x       y       z     vdW  Elec       q    Type
REMARK                         _______ _______ _______ _____ _____    ______ ____
ROOT
ATOM      1  N   LIG    1        4.039  -4.159   2.305  0.00  0.00    -0.380 N 
ATOM      2  C   LIG    1        5.135  -3.208   2.540  0.00  0.00    +0.320 C 
ATOM      3  H   LIG    1        4.165  -4.602   1.407  0.00  0.00    +0.420 HD
ENDROOT
BRANCH   1   4
ATOM      4  C   LIG    1        4.042  -5.180   3.360  0.00  0.00    +0.170 C 
ATOM      5  C   LIG    1        2.901  -6.170   3.115  0.00  0.00    +0.040 C 
ATOM      6  C   LIG    1        2.904  -7.234   4.215  0.00  0.00    +0.030 C 
ATOM      7  C   LIG    1        4.239  -7.981   4.198  0.00  0.00    +0.020 C 
ATOM      8  C   LIG    1        5.380  -6.991   4.443  0.00  0.00    +0.030 C 
ATOM      9  C   LIG    1        5.377  -5.927   3.343  0.00  0.00    +0.040 C 
ENDBRANCH   1   4
BRANCH   1  10
ATOM     10  C   LIG    1        2.757  -3.441   2.321  0.00  0.00    +0.240 C 
BRANCH  10  11
ATOM     11  C   LIG    1        2.705  -2.464   1.145  0.00  0.00    +0.030 C 
BRANCH  11  12
ATOM     12  C   LIG    1        1.370  -1.717   1.161  0.00  0.00    +0.040 C 
BRANCH  12  13
ATOM     13  C   LIG    1        1.317  -0.740  -0.015  0.00  0.00    +0.050 C 
BRANCH  13  15
ATOM     14  C   LIG    1       -0.016   1.306   0.009  0.00  0.00    +0.020 C 
ATOM     15  C   LIG    1        0.002  -0.004   0.002  0.00  0.00    -0.060 C 
ENDBRANCH  13  15
ENDBRANCH  12  13
ENDBRANCH  11  12
ENDBRANCH  10  11
ENDBRANCH   1  10
TORSDOF 6
ENDMDL
MODEL      361
REMARK  Name = ZINC001209163482
REMARK                            x       y       z     vdW  Elec       q    Type
REMARK                         _______ _______ _______ _____ _____    ______ ____
ROOT
ATOM      1  N   LIG    1        2.755  -3.402   2.274  0.00  0.00    -0.400 N 
ATOM      2  C   LIG    1        1.636  -4.366   2.109  0.00  0.00    +0.260 C 
ATOM      3  C   LIG    1        1.956  -5.139   0.777  0.00  0.00    +0.050 C 
ATOM      4  C   LIG    1        1.790  -6.636   1.132  0.00  0.00    +0.010 C 
ATOM      5  C   LIG    1        2.661  -7.177   2.289  0.00  0.00    +0.020 C 
ATOM      6  C   LIG    1        4.144  -6.889   1.858  0.00  0.00    +0.020 C 
ATOM      7  C   LIG    1        4.797  -6.207   3.082  0.00  0.00    +0.010 C 
ATOM      8  C   LIG    1        4.132  -4.907   3.592  0.00  0.00    +0.050 C 
ATOM      9  C   LIG    1        4.141  -3.934   2.356  0.00  0.00    +0.270 C 
ATOM     10  H   LIG    1        2.581  -2.872   3.114  0.00  0.00    +0.420 HD
ENDROOT
BRANCH   1  11
ATOM     11  C   LIG    1        2.705  -2.464   1.145  0.00  0.00    +0.240 C 
BRANCH  11  12
ATOM     12  C   LIG    1        1.370  -1.717   1.161  0.00  0.00    +0.040 C 
BRANCH  12  13
ATOM     13  C   LIG    1        1.317  -0.740  -0.015  0.00  0.00    +0.070 C 
BRANCH  13  15
ATOM     14  C   LIG    1       -0.016   1.306   0.009  0.00  0.00    +0.030 C 
ATOM     15  C   LIG    1        0.002  -0.004   0.002  0.00  0.00    -0.070 C 
ENDBRANCH  13  15
ENDBRANCH  12  13
ENDBRANCH  11  12
ENDBRANCH   1  11
TORSDOF 4
ENDMDL
MODEL      362
REMARK  Name = ZINC001209206993
REMARK                            x       y       z     vdW  Elec       q    Type
REMARK                         _______ _______ _______ _____ _____    ______ ____
ROOT
ATOM      1  N   LIG    1        3.980  -4.400   2.291  0.00  0.00    -0.390 N 
ATOM      2  H   LIG    1        4.271  -4.750   1.390  0.00  0.00    +0.420 HD
ENDROOT
BRANCH   1   3
ATOM      3  C   LIG    1        2.614  -3.868   2.192  0.00  0.00    +0.240 C 
BRANCH   3   4
ATOM      4  C   LIG    1        2.555  -2.817   1.081  0.00  0.00    +0.030 C 
BRANCH   4   5
ATOM      5  C   LIG    1        1.133  -2.263   0.978  0.00  0.00    +0.040 C 
BRANCH   5   6
ATOM      6  C   LIG    1        1.074  -1.212  -0.133  0.00  0.00    +0.050 C 
BRANCH   6   8
ATOM      7  C   LIG    1       -0.535   0.624  -0.148  0.00  0.00    +0.020 C 
ATOM      8  C   LIG    1       -0.327  -0.667  -0.234  0.00  0.00    -0.060 C 
ENDBRANCH   6   8
ENDBRANCH   5   6
ENDBRANCH   4   5
ENDBRANCH   3   4
ENDBRANCH   1   3
BRANCH   1   9
ATOM      9  C   LIG    1        4.011  -5.492   3.273  0.00  0.00    +0.250 C 
BRANCH   9  10
ATOM     10  C   LIG    1        3.163  -6.659   2.764  0.00  0.00    -0.030 C 
ATOM     11  C   LIG    1        3.080  -7.738   3.845  0.00  0.00    +0.070 C 
ATOM     12  C   LIG    1        3.807  -7.247   1.506  0.00  0.00    +0.030 C 
ENDBRANCH   9  10
ENDBRANCH   1   9
BRANCH   1  13
ATOM     13  C   LIG    1        4.892  -3.331   2.718  0.00  0.00    +0.240 C 
BRANCH  13  14
ATOM     14  C   LIG    1        6.333  -3.844   2.682  0.00  0.00    +0.030 C 
ATOM     15  C   LIG    1        7.278  -2.747   3.176  0.00  0.00    +0.060 C 
ENDBRANCH  13  14
ENDBRANCH   1  13
TORSDOF 9
ENDMDL
MODEL      363
REMARK  Name = ZINC001209202073
REMARK                            x       y       z     vdW  Elec       q    Type
REMARK                         _______ _______ _______ _____ _____    ______ ____
ROOT
ATOM      1  N   LIG    1        4.090  -4.356   2.426  0.00  0.00    -0.380 N 
ATOM      2  H   LIG    1        4.045  -4.891   1.572  0.00  0.00    +0.420 HD
ENDROOT
BRANCH   1   3
ATOM      3  C   LIG    1        4.191  -5.270   3.572  0.00  0.00    +0.160 C 
ATOM      4  C   LIG    1        3.364  -6.527   3.295  0.00  0.00    +0.090 C 
BRANCH   3   5
ATOM      5  C   LIG    1        3.657  -4.575   4.827  0.00  0.00    +0.050 C 
ATOM      6  C   LIG    1        4.578  -3.410   5.195  0.00  0.00    +0.030 C 
ENDBRANCH   3   5
ENDBRANCH   1   3
BRANCH   1   7
ATOM      7  C   LIG    1        2.877  -3.538   2.557  0.00  0.00    +0.240 C 
BRANCH   7   8
ATOM      8  C   LIG    1        2.680  -2.712   1.284  0.00  0.00    +0.030 C 
BRANCH   8   9
ATOM      9  C   LIG    1        1.416  -1.861   1.420  0.00  0.00    +0.040 C 
BRANCH   9  10
ATOM     10  C   LIG    1        1.218  -1.034   0.147  0.00  0.00    +0.050 C 
BRANCH  10  12
ATOM     11  C   LIG    1        0.037   1.102   0.114  0.00  0.00    +0.020 C 
ATOM     12  C   LIG    1       -0.026  -0.196   0.281  0.00  0.00    -0.060 C 
ENDBRANCH  10  12
ENDBRANCH   9  10
ENDBRANCH   8   9
ENDBRANCH   7   8
ENDBRANCH   1   7
BRANCH   1  13
ATOM     13  C   LIG    1        5.269  -3.480   2.394  0.00  0.00    +0.240 C 
BRANCH  13  14
ATOM     14  C   LIG    1        6.516  -4.315   2.095  0.00  0.00    +0.010 C 
ATOM     15  C   LIG    1        7.722  -3.388   1.925  0.00  0.00    +0.060 C 
ENDBRANCH  13  14
ENDBRANCH   1  13
TORSDOF 9
ENDMDL
MODEL      364
REMARK  Name = ZINC001209203232
REMARK                            x       y       z     vdW  Elec       q    Type
REMARK                         _______ _______ _______ _____ _____    ______ ____
ROOT
ATOM      1  N   LIG    1        3.986  -4.242   2.235  0.00  0.00    -0.380 N 
ATOM      2  C   LIG    1        5.121  -3.388   2.491  0.00  0.00    +0.240 C 
ATOM      3  C   LIG    1        6.268  -3.839   1.572  0.00  0.00    +0.050 C 
ATOM      4  C   LIG    1        7.030  -4.958   2.114  0.00  0.00    +0.030 C 
ATOM      5  C   LIG    1        6.129  -6.204   2.303  0.00  0.00    +0.020 C 
ATOM      6  C   LIG    1        5.266  -6.000   3.519  0.00  0.00    +0.060 C 
ATOM      7  C   LIG    1        3.904  -5.355   3.204  0.00  0.00    +0.160 C 
ATOM      8  C   LIG    1        3.301  -4.826   4.507  0.00  0.00    +0.070 C 
ATOM      9  H   LIG    1        4.065  -4.622   1.304  0.00  0.00    +0.420 HD
ENDROOT
BRANCH   1  10
ATOM     10  C   LIG    1        2.757  -3.441   2.321  0.00  0.00    +0.240 C 
BRANCH  10  11
ATOM     11  C   LIG    1        2.752  -2.394   1.206  0.00  0.00    +0.030 C 
BRANCH  11  12
ATOM     12  C   LIG    1        1.414  -1.651   1.210  0.00  0.00    +0.050 C 
BRANCH  12  13
ATOM     13  C   LIG    1        1.409  -0.603   0.095  0.00  0.00    +0.050 C 
BRANCH  13  15
ATOM     14  C   LIG    1        0.069   1.435   0.186  0.00  0.00    +0.020 C 
ATOM     15  C   LIG    1        0.092   0.128   0.100  0.00  0.00    -0.060 C 
ENDBRANCH  13  15
ENDBRANCH  12  13
ENDBRANCH  11  12
ENDBRANCH  10  11
ENDBRANCH   1  10
TORSDOF 5
ENDMDL
MODEL      365
REMARK  Name = ZINC001209202074
REMARK                            x       y       z     vdW  Elec       q    Type
REMARK                         _______ _______ _______ _____ _____    ______ ____
ROOT
ATOM      1  N   LIG    1        4.010  -4.502   2.299  0.00  0.00    -0.380 N 
ATOM      2  H   LIG    1        4.305  -4.837   1.393  0.00  0.00    +0.420 HD
ENDROOT
BRANCH   1   3
ATOM      3  C   LIG    1        4.094  -5.596   3.276  0.00  0.00    +0.160 C 
ATOM      4  C   LIG    1        3.552  -5.117   4.624  0.00  0.00    +0.090 C 
BRANCH   3   5
ATOM      5  C   LIG    1        3.263  -6.783   2.785  0.00  0.00    +0.050 C 
ATOM      6  C   LIG    1        3.888  -7.351   1.510  0.00  0.00    +0.030 C 
ENDBRANCH   3   5
ENDBRANCH   1   3
BRANCH   1   7
ATOM      7  C   LIG    1        2.624  -4.024   2.216  0.00  0.00    +0.240 C 
BRANCH   7   8
ATOM      8  C   LIG    1        2.512  -2.972   1.110  0.00  0.00    +0.030 C 
BRANCH   8   9
ATOM      9  C   LIG    1        1.068  -2.474   1.024  0.00  0.00    +0.040 C 
BRANCH   9  10
ATOM     10  C   LIG    1        0.956  -1.423  -0.082  0.00  0.00    +0.050 C 
BRANCH  10  12
ATOM     11  C   LIG    1       -0.724   0.349  -0.073  0.00  0.00    +0.020 C 
ATOM     12  C   LIG    1       -0.466  -0.932  -0.166  0.00  0.00    -0.060 C 
ENDBRANCH  10  12
ENDBRANCH   9  10
ENDBRANCH   8   9
ENDBRANCH   7   8
ENDBRANCH   1   7
BRANCH   1  13
ATOM     13  C   LIG    1        4.884  -3.400   2.721  0.00  0.00    +0.240 C 
BRANCH  13  14
ATOM     14  C   LIG    1        6.343  -3.858   2.674  0.00  0.00    +0.020 C 
ATOM     15  C   LIG    1        7.250  -2.726   3.160  0.00  0.00    +0.060 C 
ENDBRANCH  13  14
ENDBRANCH   1  13
TORSDOF 9
ENDMDL
MODEL      366
REMARK  Name = ZINC001209204673
REMARK                            x       y       z     vdW  Elec       q    Type
REMARK                         _______ _______ _______ _____ _____    ______ ____
ROOT
ATOM      1  N   LIG    1       -3.776  -4.250  -2.350  0.00  0.00    -0.380 N 
ATOM      2  C   LIG    1       -4.835  -3.235  -2.389  0.00  0.00    +0.240 C 
ATOM      3  C   LIG    1       -6.199  -3.909  -2.226  0.00  0.00    +0.060 C 
ATOM      4  C   LIG    1       -6.407  -4.910  -3.366  0.00  0.00    +0.030 C 
ATOM      5  C   LIG    1       -5.256  -5.920  -3.362  0.00  0.00    +0.060 C 
ATOM      6  C   LIG    1       -3.928  -5.170  -3.483  0.00  0.00    +0.170 C 
ATOM      7  H   LIG    1       -3.839  -4.768  -1.486  0.00  0.00    +0.420 HD
ENDROOT
BRANCH   6   8
ATOM      8  C   LIG    1       -3.909  -4.376  -4.792  0.00  0.00    +0.020 C 
ATOM      9  C   LIG    1       -3.927  -5.345  -5.976  0.00  0.00    +0.060 C 
ENDBRANCH   6   8
BRANCH   1  10
ATOM     10  C   LIG    1       -2.465  -3.590  -2.428  0.00  0.00    +0.250 C 
BRANCH  10  11
ATOM     11  C   LIG    1       -2.245  -2.742  -1.174  0.00  0.00    +0.030 C 
BRANCH  11  12
ATOM     12  C   LIG    1       -0.881  -2.055  -1.256  0.00  0.00    +0.040 C 
BRANCH  12  13
ATOM     13  C   LIG    1       -0.661  -1.206  -0.002  0.00  0.00    +0.050 C 
BRANCH  13  15
ATOM     14  C   LIG    1        0.770   0.772   0.036  0.00  0.00    +0.020 C 
ATOM     15  C   LIG    1        0.684  -0.530  -0.083  0.00  0.00    -0.060 C 
ENDBRANCH  13  15
ENDBRANCH  12  13
ENDBRANCH  11  12
ENDBRANCH  10  11
ENDBRANCH   1  10
TORSDOF 6
ENDMDL
MODEL      367
REMARK  Name = ZINC001209205419
REMARK                            x       y       z     vdW  Elec       q    Type
REMARK                         _______ _______ _______ _____ _____    ______ ____
ROOT
ATOM      1  N   LIG    1       -4.238  -4.692  -1.951  0.00  0.00    -0.380 N 
ATOM      2  H   LIG    1       -4.183  -5.235  -1.102  0.00  0.00    +0.420 HD
ENDROOT
BRANCH   1   3
ATOM      3  C   LIG    1       -5.552  -4.040  -2.030  0.00  0.00    +0.240 C 
ATOM      4  C   LIG    1       -6.653  -5.097  -1.931  0.00  0.00    +0.080 C 
ENDBRANCH   1   3
BRANCH   1   5
ATOM      5  C   LIG    1       -3.183  -3.670  -1.948  0.00  0.00    +0.240 C 
BRANCH   5   6
ATOM      6  C   LIG    1       -3.255  -2.866  -0.648  0.00  0.00    +0.030 C 
BRANCH   6   7
ATOM      7  C   LIG    1       -2.156  -1.802  -0.645  0.00  0.00    +0.040 C 
BRANCH   7   8
ATOM      8  C   LIG    1       -2.228  -0.998   0.655  0.00  0.00    +0.050 C 
BRANCH   8  10
ATOM      9  C   LIG    1       -1.455   1.310   0.842  0.00  0.00    +0.020 C 
ATOM     10  C   LIG    1       -1.146   0.050   0.658  0.00  0.00    -0.060 C 
ENDBRANCH   8  10
ENDBRANCH   7   8
ENDBRANCH   6   7
ENDBRANCH   5   6
ENDBRANCH   1   5
BRANCH   1  11
ATOM     11  C   LIG    1       -4.060  -5.576  -3.111  0.00  0.00    +0.160 C 
BRANCH  11  12
ATOM     12  C   LIG    1       -3.033  -6.659  -2.773  0.00  0.00    +0.050 C 
ATOM     13  C   LIG    1       -3.575  -7.545  -1.650  0.00  0.00    +0.030 C 
ENDBRANCH  11  12
BRANCH  11  14
ATOM     14  C   LIG    1       -3.566  -4.758  -4.305  0.00  0.00    +0.050 C 
ATOM     15  C   LIG    1       -4.659  -3.780  -4.741  0.00  0.00    +0.030 C 
ENDBRANCH  11  14
ENDBRANCH   1  11
TORSDOF 9
ENDMDL
MODEL      368
REMARK  Name = ZINC001209204674
REMARK                            x       y       z     vdW  Elec       q    Type
REMARK                         _______ _______ _______ _____ _____    ______ ____
ROOT
ATOM      1  N   LIG    1       -4.009  -4.353  -2.265  0.00  0.00    -0.380 N 
ATOM      2  C   LIG    1       -5.125  -3.403  -2.362  0.00  0.00    +0.250 C 
ATOM      3  C   LIG    1       -6.445  -4.170  -2.462  0.00  0.00    +0.050 C 
ATOM      4  C   LIG    1       -6.419  -5.059  -3.709  0.00  0.00    +0.030 C 
ATOM      5  C   LIG    1       -5.208  -5.994  -3.632  0.00  0.00    +0.060 C 
ATOM      6  C   LIG    1       -3.935  -5.158  -3.489  0.00  0.00    +0.160 C 
ATOM      7  H   LIG    1       -4.154  -4.960  -1.472  0.00  0.00    +0.420 HD
ENDROOT
BRANCH   6   8
ATOM      8  C   LIG    1       -2.722  -6.088  -3.411  0.00  0.00    +0.030 C 
ATOM      9  C   LIG    1       -2.603  -6.881  -4.714  0.00  0.00    +0.060 C 
ENDBRANCH   6   8
BRANCH   1  10
ATOM     10  C   LIG    1       -2.752  -3.613  -2.090  0.00  0.00    +0.240 C 
BRANCH  10  11
ATOM     11  C   LIG    1       -2.778  -2.873  -0.751  0.00  0.00    +0.030 C 
BRANCH  11  12
ATOM     12  C   LIG    1       -1.469  -2.102  -0.569  0.00  0.00    +0.040 C 
BRANCH  12  13
ATOM     13  C   LIG    1       -1.494  -1.363   0.770  0.00  0.00    +0.050 C 
BRANCH  13  15
ATOM     14  C   LIG    1       -0.231   0.684   1.188  0.00  0.00    +0.020 C 
ATOM     15  C   LIG    1       -0.205  -0.604   0.950  0.00  0.00    -0.060 C 
ENDBRANCH  13  15
ENDBRANCH  12  13
ENDBRANCH  11  12
ENDBRANCH  10  11
ENDBRANCH   1  10
TORSDOF 6
ENDMDL
MODEL      369
REMARK  Name = ZINC001209204552
REMARK                            x       y       z     vdW  Elec       q    Type
REMARK                         _______ _______ _______ _____ _____    ______ ____
ROOT
ATOM      1  N   LIG    1       -3.921  -4.241  -2.347  0.00  0.00    -0.390 N 
ATOM      2  C   LIG    1       -5.042  -3.316  -2.567  0.00  0.00    +0.250 C 
ATOM      3  C   LIG    1       -6.304  -4.091  -2.939  0.00  0.00    +0.040 C 
ATOM      4  C   LIG    1       -6.905  -4.722  -1.678  0.00  0.00    +0.030 C 
ATOM      5  C   LIG    1       -6.050  -5.925  -1.278  0.00  0.00    +0.010 C 
ATOM      6  C   LIG    1       -5.704  -6.732  -2.530  0.00  0.00    +0.030 C 
ATOM      7  C   LIG    1       -4.206  -6.630  -2.808  0.00  0.00    +0.050 C 
ATOM      8  C   LIG    1       -3.893  -5.253  -3.411  0.00  0.00    +0.250 C 
ATOM      9  H   LIG    1       -4.034  -4.697  -1.454  0.00  0.00    +0.420 HD
ENDROOT
BRANCH   1  10
ATOM     10  C   LIG    1       -2.659  -3.489  -2.355  0.00  0.00    +0.250 C 
BRANCH  10  11
ATOM     11  C   LIG    1       -2.633  -2.524  -1.168  0.00  0.00    +0.030 C 
BRANCH  11  12
ATOM     12  C   LIG    1       -1.319  -1.741  -1.176  0.00  0.00    +0.040 C 
BRANCH  12  13
ATOM     13  C   LIG    1       -1.293  -0.775   0.010  0.00  0.00    +0.050 C 
BRANCH  13  15
ATOM     14  C   LIG    1       -0.016   1.306   0.009  0.00  0.00    +0.020 C 
ATOM     15  C   LIG    1        0.002  -0.004   0.002  0.00  0.00    -0.060 C 
ENDBRANCH  13  15
ENDBRANCH  12  13
ENDBRANCH  11  12
ENDBRANCH  10  11
ENDBRANCH   1  10
TORSDOF 5
ENDMDL
MODEL      370
REMARK  Name = ZINC001209203301
REMARK                            x       y       z     vdW  Elec       q    Type
REMARK                         _______ _______ _______ _____ _____    ______ ____
ROOT
ATOM      1  N   LIG    1       -3.962  -4.409  -2.329  0.00  0.00    -0.390 N 
ATOM      2  H   LIG    1       -4.295  -4.899  -1.512  0.00  0.00    +0.420 HD
ENDROOT
BRANCH   1   3
ATOM      3  C   LIG    1       -2.673  -3.772  -2.027  0.00  0.00    +0.250 C 
BRANCH   3   4
ATOM      4  C   LIG    1       -2.823  -2.875  -0.797  0.00  0.00    +0.030 C 
BRANCH   4   5
ATOM      5  C   LIG    1       -1.481  -2.211  -0.483  0.00  0.00    +0.040 C 
BRANCH   5   6
ATOM      6  C   LIG    1       -1.631  -1.314   0.748  0.00  0.00    +0.050 C 
BRANCH   6   8
ATOM      7  C   LIG    1       -0.229   0.643   1.151  0.00  0.00    +0.020 C 
ATOM      8  C   LIG    1       -0.309  -0.661   1.057  0.00  0.00    -0.060 C 
ENDBRANCH   6   8
ENDBRANCH   5   6
ENDBRANCH   4   5
ENDBRANCH   3   4
ENDBRANCH   1   3
BRANCH   1   9
ATOM      9  C   LIG    1       -3.791  -5.360  -3.435  0.00  0.00    +0.250 C 
BRANCH   9  10
ATOM     10  C   LIG    1       -2.877  -6.503  -2.987  0.00  0.00    +0.030 C 
BRANCH  10  11
ATOM     11  C   LIG    1       -2.786  -7.549  -4.101  0.00  0.00    +0.020 C 
ATOM     12  C   LIG    1       -1.873  -8.692  -3.653  0.00  0.00    +0.030 C 
ENDBRANCH  10  11
ENDBRANCH   9  10
ENDBRANCH   1   9
BRANCH   1  13
ATOM     13  C   LIG    1       -4.938  -3.380  -2.715  0.00  0.00    +0.240 C 
BRANCH  13  14
ATOM     14  C   LIG    1       -6.319  -4.021  -2.870  0.00  0.00    +0.030 C 
ATOM     15  C   LIG    1       -7.326  -2.959  -3.318  0.00  0.00    +0.060 C 
ENDBRANCH  13  14
ENDBRANCH   1  13
TORSDOF 10
ENDMDL
MODEL      371
REMARK  Name = ZINC001209207954
REMARK                            x       y       z     vdW  Elec       q    Type
REMARK                         _______ _______ _______ _____ _____    ______ ____
ROOT
ATOM      1  N   LIG    1        4.396  -3.986   2.154  0.00  0.00    -0.380 N 
ATOM      2  H   LIG    1        5.095  -4.339   1.519  0.00  0.00    +0.420 HD
ENDROOT
BRANCH   1   3
ATOM      3  C   LIG    1        4.923  -2.811   2.860  0.00  0.00    +0.060 C 
ATOM      4  C   LIG    1        5.874  -2.046   1.937  0.00  0.00    +0.080 C 
ATOM      5  C   LIG    1        5.680  -3.264   4.110  0.00  0.00    +0.100 C 
ATOM      6  C   LIG    1        3.764  -1.898   3.268  0.00  0.00    +0.090 C 
ENDBRANCH   1   3
BRANCH   1   7
ATOM      7  C   LIG    1        3.195  -3.606   1.399  0.00  0.00    +0.250 C 
BRANCH   7   8
ATOM      8  C   LIG    1        3.579  -2.620   0.293  0.00  0.00    +0.030 C 
BRANCH   8   9
ATOM      9  C   LIG    1        2.365  -2.356  -0.600  0.00  0.00    +0.030 C 
BRANCH   9  10
ATOM     10  C   LIG    1        2.749  -1.371  -1.705  0.00  0.00    +0.050 C 
BRANCH  10  12
ATOM     11  C   LIG    1        1.141   0.116  -2.784  0.00  0.00    +0.020 C 
ATOM     12  C   LIG    1        1.553  -1.111  -2.584  0.00  0.00    -0.060 C 
ENDBRANCH  10  12
ENDBRANCH   9  10
ENDBRANCH   8   9
ENDBRANCH   7   8
ENDBRANCH   1   7
BRANCH   1  13
ATOM     13  C   LIG    1        4.050  -5.029   3.130  0.00  0.00    +0.290 C 
BRANCH  13  14
ATOM     14  C   LIG    1        5.303  -5.746   3.563  0.00  0.00    -0.100 C 
ATOM     15  C   LIG    1        5.578  -5.872   4.838  0.00  0.00    +0.120 C 
ENDBRANCH  13  14
ENDBRANCH   1  13
TORSDOF 8
ENDMDL
MODEL      372
REMARK  Name = ZINC001209203233
REMARK                            x       y       z     vdW  Elec       q    Type
REMARK                         _______ _______ _______ _____ _____    ______ ____
ROOT
ATOM      1  N   LIG    1        4.039  -4.159   2.305  0.00  0.00    -0.380 N 
ATOM      2  C   LIG    1        5.136  -3.189   2.514  0.00  0.00    +0.250 C 
ATOM      3  C   LIG    1        6.462  -3.842   2.942  0.00  0.00    +0.060 C 
ATOM      4  C   LIG    1        6.787  -5.098   2.178  0.00  0.00    +0.020 C 
ATOM      5  C   LIG    1        6.214  -6.314   2.947  0.00  0.00    +0.030 C 
ATOM      6  C   LIG    1        4.769  -6.405   2.780  0.00  0.00    +0.050 C 
ATOM      7  C   LIG    1        4.020  -5.177   3.326  0.00  0.00    +0.160 C 
ATOM      8  C   LIG    1        2.575  -5.555   3.654  0.00  0.00    +0.090 C 
ATOM      9  H   LIG    1        4.158  -4.599   1.404  0.00  0.00    +0.420 HD
ENDROOT
BRANCH   1  10
ATOM     10  C   LIG    1        2.757  -3.441   2.321  0.00  0.00    +0.250 C 
BRANCH  10  11
ATOM     11  C   LIG    1        2.705  -2.464   1.145  0.00  0.00    +0.030 C 
BRANCH  11  12
ATOM     12  C   LIG    1        1.370  -1.717   1.161  0.00  0.00    +0.040 C 
BRANCH  12  13
ATOM     13  C   LIG    1        1.317  -0.740  -0.015  0.00  0.00    +0.050 C 
BRANCH  13  15
ATOM     14  C   LIG    1       -0.016   1.306   0.009  0.00  0.00    +0.020 C 
ATOM     15  C   LIG    1        0.002  -0.004   0.002  0.00  0.00    -0.060 C 
ENDBRANCH  13  15
ENDBRANCH  12  13
ENDBRANCH  11  12
ENDBRANCH  10  11
ENDBRANCH   1  10
TORSDOF 5
ENDMDL
MODEL      373
REMARK  Name = ZINC000308548408
REMARK                            x       y       z     vdW  Elec       q    Type
REMARK                         _______ _______ _______ _____ _____    ______ ____
ROOT
ATOM      1  C   LIG    1       -4.000  -5.238  -3.533  0.00  0.00    +0.170 C 
ATOM      2  C   LIG    1       -5.256  -6.108  -3.455  0.00  0.00    +0.090 C 
ENDROOT
BRANCH   1   3
ATOM      3  N   LIG    1       -4.011  -4.472  -4.787  0.00  0.00    -0.510 N 
ATOM      4  H   LIG    1       -3.226  -3.838  -4.801  0.00  0.00    +0.420 HD
ATOM      5  H   LIG    1       -4.870  -3.946  -4.852  0.00  0.00    +0.420 HD
BRANCH   3   6
ATOM      6  C   LIG    1       -3.916  -5.396  -5.925  0.00  0.00    +0.250 C 
BRANCH   6   7
ATOM      7  C   LIG    1       -3.928  -4.599  -7.231  0.00  0.00    -0.030 C 
ATOM      8  C   LIG    1       -3.954  -5.564  -8.418  0.00  0.00    +0.070 C 
ATOM      9  C   LIG    1       -2.671  -3.729  -7.309  0.00  0.00    +0.030 C 
ENDBRANCH   6   7
ENDBRANCH   3   6
ENDBRANCH   1   3
BRANCH   1  10
ATOM     10  C   LIG    1       -3.974  -4.272  -2.346  0.00  0.00    +0.050 C 
BRANCH  10  11
ATOM     11  C   LIG    1       -2.659  -3.489  -2.355  0.00  0.00    -0.000 C 
BRANCH  11  12
ATOM     12  C   LIG    1       -2.633  -2.524  -1.168  0.00  0.00    +0.020 C 
BRANCH  12  13
ATOM     13  C   LIG    1       -1.319  -1.741  -1.176  0.00  0.00    +0.010 C 
BRANCH  13  14
ATOM     14  C   LIG    1       -1.293  -0.775   0.010  0.00  0.00    +0.040 C 
BRANCH  14  16
ATOM     15  C   LIG    1       -0.016   1.306   0.009  0.00  0.00    +0.010 C 
ATOM     16  C   LIG    1        0.002  -0.004   0.002  0.00  0.00    -0.060 C 
ENDBRANCH  14  16
ENDBRANCH  13  14
ENDBRANCH  12  13
ENDBRANCH  11  12
ENDBRANCH  10  11
ENDBRANCH   1  10
TORSDOF 9
ENDMDL
MODEL      374
REMARK  Name = ZINC000308548409
REMARK                            x       y       z     vdW  Elec       q    Type
REMARK                         _______ _______ _______ _____ _____    ______ ____
ROOT
ATOM      1  C   LIG    1       -4.000  -5.238  -3.533  0.00  0.00    +0.170 C 
ATOM      2  C   LIG    1       -5.363  -5.930  -3.597  0.00  0.00    +0.090 C 
ENDROOT
BRANCH   1   3
ATOM      3  N   LIG    1       -2.945  -6.247  -3.366  0.00  0.00    -0.510 N 
ATOM      4  H   LIG    1       -3.147  -6.814  -2.557  0.00  0.00    +0.420 HD
ATOM      5  H   LIG    1       -2.056  -5.787  -3.242  0.00  0.00    +0.430 HD
BRANCH   3   6
ATOM      6  C   LIG    1       -2.892  -7.100  -4.561  0.00  0.00    +0.250 C 
BRANCH   6   7
ATOM      7  C   LIG    1       -1.793  -8.151  -4.387  0.00  0.00    -0.030 C 
ATOM      8  C   LIG    1       -1.653  -8.960  -5.678  0.00  0.00    +0.070 C 
ATOM      9  C   LIG    1       -2.162  -9.089  -3.236  0.00  0.00    +0.030 C 
ENDBRANCH   6   7
ENDBRANCH   3   6
ENDBRANCH   1   3
BRANCH   1  10
ATOM     10  C   LIG    1       -3.974  -4.272  -2.346  0.00  0.00    +0.050 C 
BRANCH  10  11
ATOM     11  C   LIG    1       -2.659  -3.489  -2.355  0.00  0.00    +0.010 C 
BRANCH  11  12
ATOM     12  C   LIG    1       -2.633  -2.524  -1.168  0.00  0.00    +0.020 C 
BRANCH  12  13
ATOM     13  C   LIG    1       -1.319  -1.741  -1.176  0.00  0.00    +0.010 C 
BRANCH  13  14
ATOM     14  C   LIG    1       -1.293  -0.775   0.010  0.00  0.00    +0.040 C 
BRANCH  14  16
ATOM     15  C   LIG    1       -0.016   1.306   0.009  0.00  0.00    +0.020 C 
ATOM     16  C   LIG    1        0.002  -0.004   0.002  0.00  0.00    -0.060 C 
ENDBRANCH  14  16
ENDBRANCH  13  14
ENDBRANCH  12  13
ENDBRANCH  11  12
ENDBRANCH  10  11
ENDBRANCH   1  10
TORSDOF 9
ENDMDL
MODEL      375
REMARK  Name = ZINC001209421435
REMARK                            x       y       z     vdW  Elec       q    Type
REMARK                         _______ _______ _______ _____ _____    ______ ____
ROOT
ATOM      1  N   LIG    1       -4.243  -6.121   0.010  0.00  0.00    -0.380 N 
ATOM      2  C   LIG    1       -3.663  -6.596  -1.254  0.00  0.00    +0.320 C 
ATOM      3  H   LIG    1       -3.685  -6.454   0.782  0.00  0.00    +0.430 HD
ENDROOT
BRANCH   1   4
ATOM      4  C   LIG    1       -4.263  -4.652   0.018  0.00  0.00    +0.250 C 
BRANCH   4   5
ATOM      5  C   LIG    1       -2.827  -4.123   0.007  0.00  0.00    +0.030 C 
BRANCH   5   6
ATOM      6  C   LIG    1       -2.848  -2.593   0.015  0.00  0.00    +0.020 C 
BRANCH   6   7
ATOM      7  C   LIG    1       -1.413  -2.063   0.004  0.00  0.00    +0.020 C 
BRANCH   7   8
ATOM      8  C   LIG    1       -1.433  -0.534   0.013  0.00  0.00    +0.000 C 
BRANCH   8  10
ATOM      9  C   LIG    1       -0.019   1.526   0.010  0.00  0.00    +0.000 C 
ATOM     10  C   LIG    1        0.002  -0.004   0.002  0.00  0.00    -0.010 C 
ENDBRANCH   8  10
ENDBRANCH   7   8
ENDBRANCH   6   7
ENDBRANCH   5   6
ENDBRANCH   4   5
ENDBRANCH   1   4
BRANCH   1  11
ATOM     11  C   LIG    1       -5.614  -6.630   0.141  0.00  0.00    +0.290 C 
BRANCH  11  12
ATOM     12  C   LIG    1       -5.583  -8.156   0.258  0.00  0.00    -0.080 C 
ATOM     13  C   LIG    1       -6.087  -8.774   1.563  0.00  0.00    +0.060 C 
ATOM     14  C   LIG    1       -6.926  -8.889   0.287  0.00  0.00    +0.000 C 
ATOM     15  C   LIG    1       -6.998 -10.259  -0.390  0.00  0.00    +0.070 C 
ENDBRANCH  11  12
ENDBRANCH   1  11
TORSDOF 8
ENDMDL
MODEL      376
REMARK  Name = ZINC001209421436
REMARK                            x       y       z     vdW  Elec       q    Type
REMARK                         _______ _______ _______ _____ _____    ______ ____
ROOT
ATOM      1  N   LIG    1       -4.243  -6.121   0.010  0.00  0.00    -0.380 N 
ATOM      2  C   LIG    1       -3.663  -6.596  -1.254  0.00  0.00    +0.310 C 
ATOM      3  H   LIG    1       -3.685  -6.454   0.782  0.00  0.00    +0.420 HD
ENDROOT
BRANCH   1   4
ATOM      4  C   LIG    1       -4.263  -4.652   0.018  0.00  0.00    +0.250 C 
BRANCH   4   5
ATOM      5  C   LIG    1       -2.827  -4.123   0.007  0.00  0.00    +0.030 C 
BRANCH   5   6
ATOM      6  C   LIG    1       -2.848  -2.593   0.015  0.00  0.00    +0.020 C 
BRANCH   6   7
ATOM      7  C   LIG    1       -1.413  -2.063   0.004  0.00  0.00    +0.020 C 
BRANCH   7   8
ATOM      8  C   LIG    1       -1.433  -0.534   0.013  0.00  0.00    +0.000 C 
BRANCH   8  10
ATOM      9  C   LIG    1       -0.019   1.526   0.010  0.00  0.00    +0.000 C 
ATOM     10  C   LIG    1        0.002  -0.004   0.002  0.00  0.00    -0.010 C 
ENDBRANCH   8  10
ENDBRANCH   7   8
ENDBRANCH   6   7
ENDBRANCH   5   6
ENDBRANCH   4   5
ENDBRANCH   1   4
BRANCH   1  11
ATOM     11  C   LIG    1       -5.614  -6.630   0.141  0.00  0.00    +0.290 C 
BRANCH  11  12
ATOM     12  C   LIG    1       -5.583  -8.156   0.258  0.00  0.00    -0.090 C 
ATOM     13  C   LIG    1       -6.249  -8.963  -0.859  0.00  0.00    +0.060 C 
ATOM     14  C   LIG    1       -6.910  -8.871   0.519  0.00  0.00    +0.000 C 
ATOM     15  C   LIG    1       -8.167  -8.007   0.642  0.00  0.00    +0.060 C 
ENDBRANCH  11  12
ENDBRANCH   1  11
TORSDOF 8
ENDMDL
MODEL      377
REMARK  Name = ZINC001209421433
REMARK                            x       y       z     vdW  Elec       q    Type
REMARK                         _______ _______ _______ _____ _____    ______ ____
ROOT
ATOM      1  N   LIG    1       -4.243  -6.121   0.010  0.00  0.00    -0.380 N 
ATOM      2  C   LIG    1       -3.663  -6.596  -1.254  0.00  0.00    +0.320 C 
ATOM      3  H   LIG    1       -3.685  -6.454   0.782  0.00  0.00    +0.430 HD
ENDROOT
BRANCH   1   4
ATOM      4  C   LIG    1       -4.263  -4.652   0.018  0.00  0.00    +0.250 C 
BRANCH   4   5
ATOM      5  C   LIG    1       -2.827  -4.123   0.007  0.00  0.00    +0.030 C 
BRANCH   5   6
ATOM      6  C   LIG    1       -2.848  -2.593   0.015  0.00  0.00    +0.020 C 
BRANCH   6   7
ATOM      7  C   LIG    1       -1.413  -2.063   0.004  0.00  0.00    +0.020 C 
BRANCH   7   8
ATOM      8  C   LIG    1       -1.433  -0.534   0.013  0.00  0.00    +0.000 C 
BRANCH   8  10
ATOM      9  C   LIG    1       -0.019   1.526   0.010  0.00  0.00    +0.000 C 
ATOM     10  C   LIG    1        0.002  -0.004   0.002  0.00  0.00    -0.010 C 
ENDBRANCH   8  10
ENDBRANCH   7   8
ENDBRANCH   6   7
ENDBRANCH   5   6
ENDBRANCH   4   5
ENDBRANCH   1   4
BRANCH   1  11
ATOM     11  C   LIG    1       -5.614  -6.630   0.141  0.00  0.00    +0.290 C 
BRANCH  11  12
ATOM     12  C   LIG    1       -5.583  -8.156   0.258  0.00  0.00    -0.080 C 
ATOM     13  C   LIG    1       -6.087  -8.774   1.563  0.00  0.00    +0.060 C 
ATOM     14  C   LIG    1       -6.926  -8.889   0.287  0.00  0.00    +0.000 C 
ATOM     15  C   LIG    1       -8.197  -8.042   0.199  0.00  0.00    +0.060 C 
ENDBRANCH  11  12
ENDBRANCH   1  11
TORSDOF 8
ENDMDL
MODEL      378
REMARK  Name = ZINC001209421434
REMARK                            x       y       z     vdW  Elec       q    Type
REMARK                         _______ _______ _______ _____ _____    ______ ____
ROOT
ATOM      1  N   LIG    1       -4.243  -6.121   0.010  0.00  0.00    -0.380 N 
ATOM      2  C   LIG    1       -3.663  -6.596  -1.254  0.00  0.00    +0.310 C 
ATOM      3  H   LIG    1       -3.685  -6.454   0.782  0.00  0.00    +0.420 HD
ENDROOT
BRANCH   1   4
ATOM      4  C   LIG    1       -4.263  -4.652   0.018  0.00  0.00    +0.250 C 
BRANCH   4   5
ATOM      5  C   LIG    1       -2.827  -4.123   0.007  0.00  0.00    +0.030 C 
BRANCH   5   6
ATOM      6  C   LIG    1       -2.848  -2.593   0.015  0.00  0.00    +0.020 C 
BRANCH   6   7
ATOM      7  C   LIG    1       -1.413  -2.063   0.004  0.00  0.00    +0.020 C 
BRANCH   7   8
ATOM      8  C   LIG    1       -1.433  -0.534   0.013  0.00  0.00    +0.000 C 
BRANCH   8  10
ATOM      9  C   LIG    1       -0.019   1.526   0.010  0.00  0.00    +0.000 C 
ATOM     10  C   LIG    1        0.002  -0.004   0.002  0.00  0.00    -0.010 C 
ENDBRANCH   8  10
ENDBRANCH   7   8
ENDBRANCH   6   7
ENDBRANCH   5   6
ENDBRANCH   4   5
ENDBRANCH   1   4
BRANCH   1  11
ATOM     11  C   LIG    1       -5.614  -6.630   0.141  0.00  0.00    +0.290 C 
BRANCH  11  12
ATOM     12  C   LIG    1       -5.583  -8.156   0.258  0.00  0.00    -0.090 C 
ATOM     13  C   LIG    1       -6.249  -8.963  -0.859  0.00  0.00    +0.060 C 
ATOM     14  C   LIG    1       -6.910  -8.871   0.519  0.00  0.00    +0.000 C 
ATOM     15  C   LIG    1       -6.878 -10.120   1.403  0.00  0.00    +0.070 C 
ENDBRANCH  11  12
ENDBRANCH   1  11
TORSDOF 8
ENDMDL
MODEL      379
REMARK  Name = ZINC001209430946
REMARK                            x       y       z     vdW  Elec       q    Type
REMARK                         _______ _______ _______ _____ _____    ______ ____
ROOT
ATOM      1  C   LIG    1        4.118  -5.223   3.064  0.00  0.00    +0.240 C 
ENDROOT
BRANCH   1   2
ATOM      2  N   LIG    1        5.371  -5.896   3.431  0.00  0.00    -0.360 N 
ATOM      3  H   LIG    1        5.731  -6.396   2.632  0.00  0.00    +0.420 HD
BRANCH   2   4
ATOM      4  C   LIG    1        5.117  -6.842   4.526  0.00  0.00    +0.090 C 
ATOM      5  C   LIG    1        3.734  -6.809   5.181  0.00  0.00    +0.090 C 
ATOM      6  C   LIG    1        4.120  -7.973   4.266  0.00  0.00    +0.100 C 
ENDBRANCH   2   4
BRANCH   2   7
ATOM      7  C   LIG    1        6.354  -4.896   3.867  0.00  0.00    +0.250 C 
ATOM      8  C   LIG    1        7.705  -5.576   4.101  0.00  0.00    +0.080 C 
ENDBRANCH   2   7
ENDBRANCH   1   2
BRANCH   1   9
ATOM      9  C   LIG    1        4.356  -4.332   1.844  0.00  0.00    +0.030 C 
BRANCH   9  10
ATOM     10  C   LIG    1        3.051  -3.631   1.461  0.00  0.00    +0.020 C 
BRANCH  10  11
ATOM     11  C   LIG    1        3.289  -2.740   0.241  0.00  0.00    +0.020 C 
BRANCH  11  12
ATOM     12  C   LIG    1        1.984  -2.039  -0.141  0.00  0.00    +0.020 C 
BRANCH  12  13
ATOM     13  C   LIG    1        2.223  -1.147  -1.362  0.00  0.00    +0.050 C 
BRANCH  13  15
ATOM     14  C   LIG    1        0.898   0.849  -1.835  0.00  0.00    +0.010 C 
ATOM     15  C   LIG    1        0.937  -0.457  -1.738  0.00  0.00    -0.060 C 
ENDBRANCH  13  15
ENDBRANCH  12  13
ENDBRANCH  11  12
ENDBRANCH  10  11
ENDBRANCH   9  10
ENDBRANCH   1   9
TORSDOF 9
ENDMDL
MODEL      380
REMARK  Name = ZINC001209435439
REMARK                            x       y       z     vdW  Elec       q    Type
REMARK                         _______ _______ _______ _____ _____    ______ ____
ROOT
ATOM      1  C   LIG    1       -3.688  -5.638  -3.539  0.00  0.00    +0.250 C 
ENDROOT
BRANCH   1   2
ATOM      2  N   LIG    1       -5.086  -6.082  -3.623  0.00  0.00    -0.380 N 
ATOM      3  C   LIG    1       -5.954  -4.922  -3.865  0.00  0.00    +0.320 C 
ATOM      4  H   LIG    1       -5.351  -6.526  -2.757  0.00  0.00    +0.420 HD
BRANCH   2   5
ATOM      5  C   LIG    1       -5.229  -7.040  -4.728  0.00  0.00    +0.160 C 
ATOM      6  C   LIG    1       -4.964  -6.330  -6.057  0.00  0.00    +0.080 C 
BRANCH   5   7
ATOM      7  C   LIG    1       -6.650  -7.609  -4.729  0.00  0.00    +0.050 C 
ATOM      8  C   LIG    1       -6.888  -8.386  -3.433  0.00  0.00    +0.030 C 
ENDBRANCH   5   7
ENDBRANCH   2   5
ENDBRANCH   1   2
BRANCH   1   9
ATOM      9  C   LIG    1       -3.516  -4.725  -2.323  0.00  0.00    +0.030 C 
BRANCH   9  10
ATOM     10  C   LIG    1       -2.060  -4.263  -2.235  0.00  0.00    +0.020 C 
BRANCH  10  11
ATOM     11  C   LIG    1       -1.887  -3.350  -1.020  0.00  0.00    +0.020 C 
BRANCH  11  12
ATOM     12  C   LIG    1       -0.431  -2.888  -0.931  0.00  0.00    +0.010 C 
BRANCH  12  13
ATOM     13  C   LIG    1       -0.259  -1.975   0.284  0.00  0.00    +0.050 C 
BRANCH  13  15
ATOM     14  C   LIG    1        1.454  -0.240   0.418  0.00  0.00    +0.010 C 
ATOM     15  C   LIG    1        1.175  -1.519   0.371  0.00  0.00    -0.060 C 
ENDBRANCH  13  15
ENDBRANCH  12  13
ENDBRANCH  11  12
ENDBRANCH  10  11
ENDBRANCH   9  10
ENDBRANCH   1   9
TORSDOF 9
ENDMDL
MODEL      381
REMARK  Name = ZINC001209431984
REMARK                            x       y       z     vdW  Elec       q    Type
REMARK                         _______ _______ _______ _____ _____    ______ ____
ROOT
ATOM      1  C   LIG    1       -4.017  -5.534  -3.206  0.00  0.00    +0.250 C 
ENDROOT
BRANCH   1   2
ATOM      2  N   LIG    1       -5.307  -6.165  -3.513  0.00  0.00    -0.390 N 
ATOM      3  H   LIG    1       -5.641  -6.661  -2.700  0.00  0.00    +0.420 HD
BRANCH   2   4
ATOM      4  C   LIG    1       -6.281  -5.132  -3.891  0.00  0.00    +0.240 C 
ATOM      5  C   LIG    1       -7.663  -5.769  -4.054  0.00  0.00    +0.080 C 
ENDBRANCH   2   4
BRANCH   2   6
ATOM      6  C   LIG    1       -5.138  -7.109  -4.626  0.00  0.00    +0.240 C 
BRANCH   6   7
ATOM      7  C   LIG    1       -4.225  -8.256  -4.188  0.00  0.00    +0.020 C 
ATOM      8  C   LIG    1       -4.140  -9.296  -5.306  0.00  0.00    +0.060 C 
ENDBRANCH   6   7
ENDBRANCH   2   6
ENDBRANCH   1   2
BRANCH   1   9
ATOM      9  C   LIG    1       -4.166  -4.646  -1.969  0.00  0.00    +0.030 C 
BRANCH   9  10
ATOM     10  C   LIG    1       -2.822  -3.987  -1.649  0.00  0.00    +0.020 C 
BRANCH  10  11
ATOM     11  C   LIG    1       -2.971  -3.100  -0.412  0.00  0.00    +0.020 C 
BRANCH  11  12
ATOM     12  C   LIG    1       -1.628  -2.441  -0.092  0.00  0.00    +0.020 C 
BRANCH  12  13
ATOM     13  C   LIG    1       -1.776  -1.554   1.145  0.00  0.00    +0.050 C 
BRANCH  13  15
ATOM     14  C   LIG    1       -0.370   0.398   1.564  0.00  0.00    +0.010 C 
ATOM     15  C   LIG    1       -0.453  -0.905   1.461  0.00  0.00    -0.060 C 
ENDBRANCH  13  15
ENDBRANCH  12  13
ENDBRANCH  11  12
ENDBRANCH  10  11
ENDBRANCH   9  10
ENDBRANCH   1   9
TORSDOF 10
ENDMDL
MODEL      382
REMARK  Name = ZINC001209423588
REMARK                            x       y       z     vdW  Elec       q    Type
REMARK                         _______ _______ _______ _____ _____    ______ ____
ROOT
ATOM      1  N   LIG    1       -4.106  -5.222  -3.631  0.00  0.00    -0.390 N 
ATOM      2  H   LIG    1       -3.925  -4.926  -4.579  0.00  0.00    +0.420 HD
ENDROOT
BRANCH   1   3
ATOM      3  C   LIG    1       -3.108  -6.224  -3.232  0.00  0.00    +0.240 C 
ATOM      4  C   LIG    1       -3.083  -7.356  -4.261  0.00  0.00    +0.080 C 
ENDBRANCH   1   3
BRANCH   1   5
ATOM      5  C   LIG    1       -4.023  -4.063  -2.732  0.00  0.00    +0.250 C 
BRANCH   5   6
ATOM      6  C   LIG    1       -2.667  -3.377  -2.908  0.00  0.00    +0.030 C 
BRANCH   6   7
ATOM      7  C   LIG    1       -2.581  -2.170  -1.972  0.00  0.00    +0.020 C 
BRANCH   7   8
ATOM      8  C   LIG    1       -1.225  -1.484  -2.148  0.00  0.00    +0.020 C 
BRANCH   8   9
ATOM      9  C   LIG    1       -1.139  -0.277  -1.211  0.00  0.00    +0.050 C 
BRANCH   9  11
ATOM     10  C   LIG    1        0.252   1.675  -1.675  0.00  0.00    +0.020 C 
ATOM     11  C   LIG    1        0.197   0.399  -1.384  0.00  0.00    -0.060 C 
ENDBRANCH   9  11
ENDBRANCH   8   9
ENDBRANCH   7   8
ENDBRANCH   6   7
ENDBRANCH   5   6
ENDBRANCH   1   5
BRANCH   1  12
ATOM     12  C   LIG    1       -5.450  -5.810  -3.550  0.00  0.00    +0.240 C 
BRANCH  12  13
ATOM     13  C   LIG    1       -6.476  -4.811  -4.090  0.00  0.00    +0.030 C 
BRANCH  13  14
ATOM     14  C   LIG    1       -7.860  -5.465  -4.112  0.00  0.00    +0.020 C 
ATOM     15  C   LIG    1       -8.886  -4.466  -4.651  0.00  0.00    +0.030 C 
ENDBRANCH  13  14
ENDBRANCH  12  13
ENDBRANCH   1  12
TORSDOF 10
ENDMDL
MODEL      383
REMARK  Name = ZINC001209431433
REMARK                            x       y       z     vdW  Elec       q    Type
REMARK                         _______ _______ _______ _____ _____    ______ ____
ROOT
ATOM      1  C   LIG    1        4.145  -5.166   3.480  0.00  0.00    +0.250 C 
ENDROOT
BRANCH   1   2
ATOM      2  N   LIG    1        5.427  -5.883   3.464  0.00  0.00    -0.390 N 
ATOM      3  C   LIG    1        6.530  -4.936   3.731  0.00  0.00    +0.250 C 
ATOM      4  C   LIG    1        7.548  -5.742   4.576  0.00  0.00    +0.080 C 
ATOM      5  C   LIG    1        6.608  -6.603   5.461  0.00  0.00    +0.070 C 
ATOM      6  C   LIG    1        5.432  -6.914   4.517  0.00  0.00    +0.160 C 
ATOM      7  C   LIG    1        4.115  -6.875   5.296  0.00  0.00    +0.080 C 
ATOM      8  H   LIG    1        5.563  -6.317   2.563  0.00  0.00    +0.430 HD
ENDBRANCH   1   2
BRANCH   1   9
ATOM      9  C   LIG    1        4.093  -4.188   2.304  0.00  0.00    +0.010 C 
BRANCH   9  10
ATOM     10  C   LIG    1        2.757  -3.441   2.321  0.00  0.00    +0.020 C 
BRANCH  10  11
ATOM     11  C   LIG    1        2.705  -2.464   1.145  0.00  0.00    +0.020 C 
BRANCH  11  12
ATOM     12  C   LIG    1        1.370  -1.717   1.161  0.00  0.00    +0.010 C 
BRANCH  12  13
ATOM     13  C   LIG    1        1.317  -0.740  -0.015  0.00  0.00    +0.050 C 
BRANCH  13  15
ATOM     14  C   LIG    1       -0.016   1.306   0.009  0.00  0.00    +0.010 C 
ATOM     15  C   LIG    1        0.002  -0.004   0.002  0.00  0.00    -0.060 C 
ENDBRANCH  13  15
ENDBRANCH  12  13
ENDBRANCH  11  12
ENDBRANCH  10  11
ENDBRANCH   9  10
ENDBRANCH   1   9
TORSDOF 7
ENDMDL
MODEL      384
REMARK  Name = ZINC001209435440
REMARK                            x       y       z     vdW  Elec       q    Type
REMARK                         _______ _______ _______ _____ _____    ______ ____
ROOT
ATOM      1  C   LIG    1       -4.089  -5.331  -3.144  0.00  0.00    +0.240 C 
ENDROOT
BRANCH   1   2
ATOM      2  N   LIG    1       -5.378  -6.029  -3.239  0.00  0.00    -0.380 N 
ATOM      3  C   LIG    1       -6.463  -5.043  -3.333  0.00  0.00    +0.310 C 
ATOM      4  H   LIG    1       -5.513  -6.600  -2.417  0.00  0.00    +0.420 HD
BRANCH   2   5
ATOM      5  C   LIG    1       -5.386  -6.883  -4.434  0.00  0.00    +0.160 C 
ATOM      6  C   LIG    1       -5.033  -6.042  -5.663  0.00  0.00    +0.080 C 
BRANCH   5   7
ATOM      7  C   LIG    1       -4.357  -8.002  -4.269  0.00  0.00    +0.050 C 
ATOM      8  C   LIG    1       -4.780  -8.918  -3.118  0.00  0.00    +0.030 C 
ENDBRANCH   5   7
ENDBRANCH   2   5
ENDBRANCH   1   2
BRANCH   1   9
ATOM      9  C   LIG    1       -4.032  -4.540  -1.835  0.00  0.00    +0.030 C 
BRANCH   9  10
ATOM     10  C   LIG    1       -2.690  -3.813  -1.737  0.00  0.00    +0.020 C 
BRANCH  10  11
ATOM     11  C   LIG    1       -2.633  -3.022  -0.429  0.00  0.00    +0.020 C 
BRANCH  11  12
ATOM     12  C   LIG    1       -1.290  -2.295  -0.330  0.00  0.00    +0.020 C 
BRANCH  12  13
ATOM     13  C   LIG    1       -1.233  -1.504   0.978  0.00  0.00    +0.050 C 
BRANCH  13  15
ATOM     14  C   LIG    1        0.120   0.508   1.263  0.00  0.00    +0.010 C 
ATOM     15  C   LIG    1        0.089  -0.788   1.075  0.00  0.00    -0.060 C 
ENDBRANCH  13  15
ENDBRANCH  12  13
ENDBRANCH  11  12
ENDBRANCH  10  11
ENDBRANCH   9  10
ENDBRANCH   1   9
TORSDOF 9
ENDMDL
MODEL      385
REMARK  Name = ZINC001209427565
REMARK                            x       y       z     vdW  Elec       q    Type
REMARK                         _______ _______ _______ _____ _____    ______ ____
ROOT
ATOM      1  N   LIG    1       -4.367  -5.174  -2.627  0.00  0.00    -0.390 N 
ATOM      2  C   LIG    1       -3.265  -5.918  -2.003  0.00  0.00    +0.310 C 
ATOM      3  H   LIG    1       -4.205  -5.104  -3.621  0.00  0.00    +0.420 HD
ENDROOT
BRANCH   1   4
ATOM      4  C   LIG    1       -4.438  -3.826  -2.047  0.00  0.00    +0.250 C 
BRANCH   4   5
ATOM      5  C   LIG    1       -3.170  -3.049  -2.405  0.00  0.00    +0.030 C 
BRANCH   5   6
ATOM      6  C   LIG    1       -3.245  -1.645  -1.801  0.00  0.00    +0.020 C 
BRANCH   6   7
ATOM      7  C   LIG    1       -1.977  -0.868  -2.159  0.00  0.00    +0.020 C 
BRANCH   7   8
ATOM      8  C   LIG    1       -2.051   0.536  -1.555  0.00  0.00    +0.050 C 
BRANCH   8  10
ATOM      9  C   LIG    1       -0.893   2.462  -2.509  0.00  0.00    +0.020 C 
ATOM     10  C   LIG    1       -0.802   1.302  -1.908  0.00  0.00    -0.060 C 
ENDBRANCH   8  10
ENDBRANCH   7   8
ENDBRANCH   6   7
ENDBRANCH   5   6
ENDBRANCH   4   5
ENDBRANCH   1   4
BRANCH   1  11
ATOM     11  C   LIG    1       -5.632  -5.879  -2.386  0.00  0.00    +0.260 C 
BRANCH  11  12
ATOM     12  C   LIG    1       -5.667  -7.165  -3.215  0.00  0.00    -0.090 C 
ATOM     13  C   LIG    1       -5.372  -6.835  -4.679  0.00  0.00    +0.040 C 
ATOM     14  C   LIG    1       -7.051  -7.805  -3.105  0.00  0.00    +0.070 C 
ATOM     15  C   LIG    1       -4.611  -8.139  -2.689  0.00  0.00    +0.050 C 
ENDBRANCH  11  12
ENDBRANCH   1  11
TORSDOF 8
ENDMDL
MODEL      386
REMARK  Name = ZINC001209431539
REMARK                            x       y       z     vdW  Elec       q    Type
REMARK                         _______ _______ _______ _____ _____    ______ ____
ROOT
ATOM      1  C   LIG    1        4.145  -5.166   3.480  0.00  0.00    +0.250 C 
ENDROOT
BRANCH   1   2
ATOM      2  N   LIG    1        5.427  -5.883   3.464  0.00  0.00    -0.390 N 
ATOM      3  C   LIG    1        6.522  -4.933   3.699  0.00  0.00    +0.300 C 
ATOM      4  H   LIG    1        5.553  -6.326   2.566  0.00  0.00    +0.420 HD
BRANCH   2   5
ATOM      5  C   LIG    1        5.430  -6.904   4.519  0.00  0.00    +0.250 C 
BRANCH   5   6
ATOM      6  C   LIG    1        6.712  -7.734   4.423  0.00  0.00    +0.030 C 
BRANCH   6   7
ATOM      7  C   LIG    1        6.715  -8.798   5.522  0.00  0.00    +0.020 C 
ATOM      8  C   LIG    1        7.997  -9.627   5.426  0.00  0.00    +0.030 C 
ENDBRANCH   6   7
ENDBRANCH   5   6
ENDBRANCH   2   5
ENDBRANCH   1   2
BRANCH   1   9
ATOM      9  C   LIG    1        4.093  -4.188   2.304  0.00  0.00    +0.030 C 
BRANCH   9  10
ATOM     10  C   LIG    1        2.757  -3.441   2.321  0.00  0.00    +0.020 C 
BRANCH  10  11
ATOM     11  C   LIG    1        2.705  -2.464   1.145  0.00  0.00    +0.020 C 
BRANCH  11  12
ATOM     12  C   LIG    1        1.370  -1.717   1.161  0.00  0.00    +0.020 C 
BRANCH  12  13
ATOM     13  C   LIG    1        1.317  -0.740  -0.015  0.00  0.00    +0.050 C 
BRANCH  13  15
ATOM     14  C   LIG    1       -0.016   1.306   0.009  0.00  0.00    +0.010 C 
ATOM     15  C   LIG    1        0.002  -0.004   0.002  0.00  0.00    -0.060 C 
ENDBRANCH  13  15
ENDBRANCH  12  13
ENDBRANCH  11  12
ENDBRANCH  10  11
ENDBRANCH   9  10
ENDBRANCH   1   9
TORSDOF 10
ENDMDL
MODEL      387
REMARK  Name = ZINC001209431935
REMARK                            x       y       z     vdW  Elec       q    Type
REMARK                         _______ _______ _______ _____ _____    ______ ____
ROOT
ATOM      1  C   LIG    1        4.171  -5.119   3.335  0.00  0.00    +0.250 C 
ENDROOT
BRANCH   1   2
ATOM      2  N   LIG    1        5.470  -5.767   3.560  0.00  0.00    -0.390 N 
ATOM      3  C   LIG    1        6.452  -4.762   3.989  0.00  0.00    +0.310 C 
ATOM      4  H   LIG    1        5.783  -6.199   2.703  0.00  0.00    +0.420 HD
BRANCH   2   5
ATOM      5  C   LIG    1        5.332  -6.793   4.602  0.00  0.00    +0.250 C 
BRANCH   5   6
ATOM      6  C   LIG    1        6.648  -7.562   4.739  0.00  0.00    -0.030 C 
ATOM      7  C   LIG    1        6.918  -8.342   3.450  0.00  0.00    +0.030 C 
ATOM      8  C   LIG    1        6.549  -8.537   5.914  0.00  0.00    +0.070 C 
ENDBRANCH   5   6
ENDBRANCH   2   5
ENDBRANCH   1   2
BRANCH   1   9
ATOM      9  C   LIG    1        4.285  -4.140   2.165  0.00  0.00    +0.030 C 
BRANCH   9  10
ATOM     10  C   LIG    1        2.932  -3.465   1.932  0.00  0.00    +0.020 C 
BRANCH  10  11
ATOM     11  C   LIG    1        3.047  -2.485   0.762  0.00  0.00    +0.020 C 
BRANCH  11  12
ATOM     12  C   LIG    1        1.694  -1.810   0.528  0.00  0.00    +0.020 C 
BRANCH  12  13
ATOM     13  C   LIG    1        1.808  -0.831  -0.642  0.00  0.00    +0.050 C 
BRANCH  13  15
ATOM     14  C   LIG    1        0.387   1.141  -0.875  0.00  0.00    +0.010 C 
ATOM     15  C   LIG    1        0.475  -0.166  -0.872  0.00  0.00    -0.060 C 
ENDBRANCH  13  15
ENDBRANCH  12  13
ENDBRANCH  11  12
ENDBRANCH  10  11
ENDBRANCH   9  10
ENDBRANCH   1   9
TORSDOF 9
ENDMDL
MODEL      388
REMARK  Name = ZINC000168066161
REMARK                            x       y       z     vdW  Elec       q    Type
REMARK                         _______ _______ _______ _____ _____    ______ ____
ROOT
ATOM      1  N   LIG    1        2.937  -1.850   1.460  0.00  0.00    -0.510 N 
ATOM      2  H   LIG    1        3.563  -1.217   0.986  0.00  0.00    +0.430 HD
ATOM      3  H   LIG    1        2.894  -2.723   0.955  0.00  0.00    +0.430 HD
ENDROOT
BRANCH   1   4
ATOM      4  C   LIG    1        3.427  -2.096   2.822  0.00  0.00    +0.180 C 
ATOM      5  C   LIG    1        3.560  -0.746   3.557  0.00  0.00    +0.050 C 
ATOM      6  C   LIG    1        3.556  -1.006   5.039  0.00  0.00    +0.030 C 
ATOM      7  C   LIG    1        4.978  -1.135   5.618  0.00  0.00    +0.010 C 
ATOM      8  C   LIG    1        5.919  -1.954   4.715  0.00  0.00    +0.000 C 
ATOM      9  C   LIG    1        5.249  -3.172   4.139  0.00  0.00    +0.070 C 
ATOM     10  C   LIG    1        4.693  -2.810   2.746  0.00  0.00    -0.030 C 
ATOM     11  C   LIG    1        4.482  -4.098   1.947  0.00  0.00    +0.030 C 
ENDBRANCH   1   4
BRANCH   1  12
ATOM     12  C   LIG    1        1.595  -1.255   1.522  0.00  0.00    +0.250 C 
BRANCH  12  13
ATOM     13  C   LIG    1        1.026  -1.129   0.108  0.00  0.00    +0.070 C 
BRANCH  13  15
ATOM     14  C   LIG    1       -0.502   0.772   0.010  0.00  0.00    +0.050 C 
ATOM     15  C   LIG    1       -0.350  -0.519   0.172  0.00  0.00    -0.150 C 
ATOM     16  C   LIG    1       -1.552  -1.393   0.422  0.00  0.00    +0.080 C 
ENDBRANCH  13  15
ENDBRANCH  12  13
ENDBRANCH   1  12
TORSDOF 4
ENDMDL
MODEL      389
REMARK  Name = ZINC000168066054
REMARK                            x       y       z     vdW  Elec       q    Type
REMARK                         _______ _______ _______ _____ _____    ______ ____
ROOT
ATOM      1  N   LIG    1        2.997  -1.823   1.401  0.00  0.00    -0.510 N 
ATOM      2  H   LIG    1        3.707  -1.233   0.995  0.00  0.00    +0.430 HD
ATOM      3  H   LIG    1        2.905  -2.665   0.851  0.00  0.00    +0.430 HD
ENDROOT
BRANCH   1   4
ATOM      4  C   LIG    1        3.378  -2.175   2.775  0.00  0.00    +0.170 C 
ATOM      5  C   LIG    1        2.390  -3.160   3.338  0.00  0.00    +0.020 C 
ATOM      6  C   LIG    1        2.165  -2.971   4.850  0.00  0.00    +0.030 C 
ATOM      7  C   LIG    1        3.472  -2.697   5.619  0.00  0.00    +0.000 C 
ATOM      8  C   LIG    1        4.609  -3.564   5.149  0.00  0.00    +0.030 C 
ATOM      9  C   LIG    1        5.409  -2.787   4.083  0.00  0.00    +0.030 C 
ATOM     10  C   LIG    1        4.777  -2.825   2.774  0.00  0.00    +0.000 C 
ATOM     11  C   LIG    1        5.668  -2.088   1.772  0.00  0.00    +0.030 C 
ENDBRANCH   1   4
BRANCH   1  12
ATOM     12  C   LIG    1        1.715  -1.106   1.417  0.00  0.00    +0.250 C 
BRANCH  12  13
ATOM     13  C   LIG    1        1.317  -0.740  -0.015  0.00  0.00    +0.070 C 
BRANCH  13  15
ATOM     14  C   LIG    1       -0.016   1.306   0.009  0.00  0.00    +0.050 C 
ATOM     15  C   LIG    1        0.002  -0.004   0.002  0.00  0.00    -0.150 C 
ATOM     16  C   LIG    1       -1.293  -0.775   0.010  0.00  0.00    +0.080 C 
ENDBRANCH  13  15
ENDBRANCH  12  13
ENDBRANCH   1  12
TORSDOF 4
ENDMDL
MODEL      390
REMARK  Name = ZINC000168067224
REMARK                            x       y       z     vdW  Elec       q    Type
REMARK                         _______ _______ _______ _____ _____    ______ ____
ROOT
ATOM      1  N   LIG    1        2.997  -1.823   1.401  0.00  0.00    -0.510 N 
ATOM      2  H   LIG    1        3.707  -1.233   0.995  0.00  0.00    +0.420 HD
ATOM      3  H   LIG    1        2.905  -2.665   0.851  0.00  0.00    +0.430 HD
ENDROOT
BRANCH   1   4
ATOM      4  C   LIG    1        3.378  -2.175   2.775  0.00  0.00    +0.170 C 
ATOM      5  C   LIG    1        3.639  -0.897   3.575  0.00  0.00    +0.040 C 
ATOM      6  C   LIG    1        4.037  -1.264   5.006  0.00  0.00    +0.030 C 
ATOM      7  C   LIG    1        5.306  -2.117   4.980  0.00  0.00    +0.020 C 
ATOM      8  C   LIG    1        5.045  -3.395   4.181  0.00  0.00    +0.060 C 
ATOM      9  C   LIG    1        4.648  -3.029   2.749  0.00  0.00    -0.080 C 
ATOM     10  C   LIG    1        5.781  -2.238   2.092  0.00  0.00    +0.040 C 
ATOM     11  C   LIG    1        4.386  -4.307   1.949  0.00  0.00    +0.040 C 
ENDBRANCH   1   4
BRANCH   1  12
ATOM     12  C   LIG    1        1.715  -1.106   1.417  0.00  0.00    +0.250 C 
BRANCH  12  13
ATOM     13  C   LIG    1        1.317  -0.740  -0.015  0.00  0.00    +0.070 C 
BRANCH  13  15
ATOM     14  C   LIG    1       -0.016   1.306   0.009  0.00  0.00    +0.050 C 
ATOM     15  C   LIG    1        0.002  -0.004   0.002  0.00  0.00    -0.150 C 
ATOM     16  C   LIG    1       -1.293  -0.775   0.010  0.00  0.00    +0.070 C 
ENDBRANCH  13  15
ENDBRANCH  12  13
ENDBRANCH   1  12
TORSDOF 4
ENDMDL
MODEL      391
REMARK  Name = ZINC001209422965
REMARK                            x       y       z     vdW  Elec       q    Type
REMARK                         _______ _______ _______ _____ _____    ______ ____
ROOT
ATOM      1  N   LIG    1       -3.875  -5.194  -3.495  0.00  0.00    -0.390 N 
ATOM      2  H   LIG    1       -3.094  -5.830  -3.433  0.00  0.00    +0.420 HD
ENDROOT
BRANCH   1   3
ATOM      3  C   LIG    1       -3.864  -4.289  -2.339  0.00  0.00    +0.250 C 
BRANCH   3   4
ATOM      4  C   LIG    1       -3.828  -5.110  -1.048  0.00  0.00    +0.030 C 
BRANCH   4   5
ATOM      5  C   LIG    1       -3.683  -4.171   0.150  0.00  0.00    +0.020 C 
BRANCH   5   6
ATOM      6  C   LIG    1       -3.647  -4.992   1.441  0.00  0.00    +0.020 C 
BRANCH   6   7
ATOM      7  C   LIG    1       -3.501  -4.053   2.639  0.00  0.00    +0.050 C 
BRANCH   7   9
ATOM      8  C   LIG    1       -2.465  -4.727   4.745  0.00  0.00    +0.020 C 
ATOM      9  C   LIG    1       -3.466  -4.862   3.910  0.00  0.00    -0.060 C 
ENDBRANCH   7   9
ENDBRANCH   6   7
ENDBRANCH   5   6
ENDBRANCH   4   5
ENDBRANCH   3   4
ENDBRANCH   1   3
BRANCH   1  10
ATOM     10  C   LIG    1       -3.770  -4.409  -4.733  0.00  0.00    +0.240 C 
BRANCH  10  11
ATOM     11  C   LIG    1       -2.403  -3.725  -4.787  0.00  0.00    +0.020 C 
ATOM     12  C   LIG    1       -2.240  -3.017  -6.134  0.00  0.00    +0.060 C 
ENDBRANCH  10  11
ENDBRANCH   1  10
BRANCH   1  13
ATOM     13  C   LIG    1       -5.129  -5.960  -3.506  0.00  0.00    +0.240 C 
BRANCH  13  14
ATOM     14  C   LIG    1       -5.088  -6.990  -4.637  0.00  0.00    +0.030 C 
ATOM     15  C   LIG    1       -6.394  -7.787  -4.648  0.00  0.00    +0.060 C 
ENDBRANCH  13  14
ENDBRANCH   1  13
TORSDOF 10
ENDMDL
MODEL      392
REMARK  Name = ZINC000168065161
REMARK                            x       y       z     vdW  Elec       q    Type
REMARK                         _______ _______ _______ _____ _____    ______ ____
ROOT
ATOM      1  N   LIG    1       -2.942  -1.888  -1.417  0.00  0.00    -0.510 N 
ATOM      2  H   LIG    1       -3.668  -1.322  -1.005  0.00  0.00    +0.420 HD
ATOM      3  H   LIG    1       -2.827  -2.733  -0.877  0.00  0.00    +0.420 HD
ENDROOT
BRANCH   1   4
ATOM      4  C   LIG    1       -3.314  -2.235  -2.795  0.00  0.00    +0.170 C 
ATOM      5  C   LIG    1       -2.275  -3.195  -3.378  0.00  0.00    +0.060 C 
ATOM      6  C   LIG    1       -2.223  -4.466  -2.528  0.00  0.00    +0.010 C 
ATOM      7  C   LIG    1       -3.597  -5.139  -2.532  0.00  0.00    +0.030 C 
ATOM      8  C   LIG    1       -4.636  -4.179  -1.949  0.00  0.00    +0.020 C 
ATOM      9  C   LIG    1       -4.689  -2.908  -2.799  0.00  0.00    +0.010 C 
BRANCH   9  10
ATOM     10  C   LIG    1       -5.728  -1.948  -2.216  0.00  0.00    -0.000 C 
ATOM     11  C   LIG    1       -7.120  -2.571  -2.333  0.00  0.00    +0.030 C 
ENDBRANCH   9  10
ENDBRANCH   1   4
BRANCH   1  12
ATOM     12  C   LIG    1       -1.680  -1.137  -1.425  0.00  0.00    +0.250 C 
BRANCH  12  13
ATOM     13  C   LIG    1       -1.293  -0.775   0.010  0.00  0.00    +0.070 C 
BRANCH  13  15
ATOM     14  C   LIG    1       -0.016   1.306   0.009  0.00  0.00    +0.050 C 
ATOM     15  C   LIG    1        0.002  -0.004   0.002  0.00  0.00    -0.150 C 
ATOM     16  C   LIG    1        1.317  -0.740  -0.015  0.00  0.00    +0.070 C 
ENDBRANCH  13  15
ENDBRANCH  12  13
ENDBRANCH   1  12
TORSDOF 5
ENDMDL
MODEL      393
REMARK  Name = ZINC000168066268
REMARK                            x       y       z     vdW  Elec       q    Type
REMARK                         _______ _______ _______ _____ _____    ______ ____
ROOT
ATOM      1  N   LIG    1        2.997  -1.823   1.401  0.00  0.00    -0.510 N 
ATOM      2  H   LIG    1        3.707  -1.233   0.995  0.00  0.00    +0.420 HD
ATOM      3  H   LIG    1        2.905  -2.665   0.851  0.00  0.00    +0.430 HD
ENDROOT
BRANCH   1   4
ATOM      4  C   LIG    1        3.378  -2.175   2.775  0.00  0.00    +0.170 C 
ATOM      5  C   LIG    1        3.598  -0.878   3.577  0.00  0.00    +0.030 C 
ATOM      6  C   LIG    1        4.381  -1.109   4.841  0.00  0.00    +0.040 C 
ATOM      7  C   LIG    1        5.872  -0.842   4.550  0.00  0.00    +0.000 C 
ATOM      8  C   LIG    1        6.518  -1.968   3.890  0.00  0.00    +0.010 C 
ATOM      9  C   LIG    1        5.895  -2.279   2.514  0.00  0.00    +0.030 C 
ATOM     10  C   LIG    1        4.634  -3.067   2.729  0.00  0.00    +0.010 C 
ATOM     11  C   LIG    1        4.479  -4.075   1.588  0.00  0.00    +0.030 C 
ENDBRANCH   1   4
BRANCH   1  12
ATOM     12  C   LIG    1        1.715  -1.106   1.417  0.00  0.00    +0.250 C 
BRANCH  12  13
ATOM     13  C   LIG    1        1.317  -0.740  -0.015  0.00  0.00    +0.070 C 
BRANCH  13  15
ATOM     14  C   LIG    1       -0.016   1.306   0.009  0.00  0.00    +0.050 C 
ATOM     15  C   LIG    1        0.002  -0.004   0.002  0.00  0.00    -0.150 C 
ATOM     16  C   LIG    1       -1.293  -0.775   0.010  0.00  0.00    +0.080 C 
ENDBRANCH  13  15
ENDBRANCH  12  13
ENDBRANCH   1  12
TORSDOF 4
ENDMDL
MODEL      394
REMARK  Name = ZINC000168065260
REMARK                            x       y       z     vdW  Elec       q    Type
REMARK                         _______ _______ _______ _____ _____    ______ ____
ROOT
ATOM      1  N   LIG    1       -2.942  -1.888  -1.417  0.00  0.00    -0.510 N 
ATOM      2  H   LIG    1       -3.668  -1.322  -1.005  0.00  0.00    +0.430 HD
ATOM      3  H   LIG    1       -2.827  -2.733  -0.877  0.00  0.00    +0.430 HD
ENDROOT
BRANCH   1   4
ATOM      4  C   LIG    1       -3.314  -2.235  -2.795  0.00  0.00    +0.170 C 
ATOM      5  C   LIG    1       -2.275  -3.195  -3.378  0.00  0.00    +0.040 C 
ATOM      6  C   LIG    1       -2.663  -3.556  -4.813  0.00  0.00    +0.030 C 
ATOM      7  C   LIG    1       -4.037  -4.229  -4.816  0.00  0.00    +0.020 C 
ATOM      8  C   LIG    1       -5.076  -3.269  -4.234  0.00  0.00    +0.050 C 
ATOM      9  C   LIG    1       -4.689  -2.908  -2.799  0.00  0.00    -0.010 C 
BRANCH   9  10
ATOM     10  C   LIG    1       -5.728  -1.948  -2.216  0.00  0.00    +0.000 C 
ATOM     11  C   LIG    1       -7.076  -2.663  -2.103  0.00  0.00    +0.040 C 
ENDBRANCH   9  10
ENDBRANCH   1   4
BRANCH   1  12
ATOM     12  C   LIG    1       -1.680  -1.137  -1.425  0.00  0.00    +0.250 C 
BRANCH  12  13
ATOM     13  C   LIG    1       -1.293  -0.775   0.010  0.00  0.00    +0.070 C 
BRANCH  13  15
ATOM     14  C   LIG    1       -0.016   1.306   0.009  0.00  0.00    +0.050 C 
ATOM     15  C   LIG    1        0.002  -0.004   0.002  0.00  0.00    -0.150 C 
ATOM     16  C   LIG    1        1.317  -0.740  -0.015  0.00  0.00    +0.070 C 
ENDBRANCH  13  15
ENDBRANCH  12  13
ENDBRANCH   1  12
TORSDOF 5
ENDMDL
MODEL      395
REMARK  Name = ZINC000168065442
REMARK                            x       y       z     vdW  Elec       q    Type
REMARK                         _______ _______ _______ _____ _____    ______ ____
ROOT
ATOM      1  N   LIG    1       -2.942  -1.888  -1.417  0.00  0.00    -0.510 N 
ATOM      2  H   LIG    1       -3.668  -1.322  -1.005  0.00  0.00    +0.420 HD
ATOM      3  H   LIG    1       -2.827  -2.733  -0.877  0.00  0.00    +0.420 HD
ENDROOT
BRANCH   1   4
ATOM      4  C   LIG    1       -3.314  -2.235  -2.795  0.00  0.00    +0.170 C 
ATOM      5  C   LIG    1       -3.610  -0.956  -3.581  0.00  0.00    +0.060 C 
ATOM      6  C   LIG    1       -4.764  -0.204  -2.915  0.00  0.00    +0.020 C 
ATOM      7  C   LIG    1       -6.010  -1.092  -2.899  0.00  0.00    +0.030 C 
ATOM      8  C   LIG    1       -5.714  -2.371  -2.113  0.00  0.00    +0.020 C 
ATOM      9  C   LIG    1       -4.560  -3.123  -2.779  0.00  0.00    +0.010 C 
BRANCH   9  10
ATOM     10  C   LIG    1       -4.264  -4.402  -1.993  0.00  0.00    -0.000 C 
ATOM     11  C   LIG    1       -5.466  -5.345  -2.082  0.00  0.00    +0.030 C 
ENDBRANCH   9  10
ENDBRANCH   1   4
BRANCH   1  12
ATOM     12  C   LIG    1       -1.680  -1.137  -1.425  0.00  0.00    +0.250 C 
BRANCH  12  13
ATOM     13  C   LIG    1       -1.293  -0.775   0.010  0.00  0.00    +0.070 C 
BRANCH  13  15
ATOM     14  C   LIG    1       -0.016   1.306   0.009  0.00  0.00    +0.050 C 
ATOM     15  C   LIG    1        0.002  -0.004   0.002  0.00  0.00    -0.150 C 
ATOM     16  C   LIG    1        1.317  -0.740  -0.015  0.00  0.00    +0.070 C 
ENDBRANCH  13  15
ENDBRANCH  12  13
ENDBRANCH   1  12
TORSDOF 5
ENDMDL
MODEL      396
REMARK  Name = ZINC000168067336
REMARK                            x       y       z     vdW  Elec       q    Type
REMARK                         _______ _______ _______ _____ _____    ______ ____
ROOT
ATOM      1  N   LIG    1        2.997  -1.823   1.401  0.00  0.00    -0.510 N 
ATOM      2  H   LIG    1        3.707  -1.233   0.995  0.00  0.00    +0.430 HD
ATOM      3  H   LIG    1        2.905  -2.665   0.851  0.00  0.00    +0.420 HD
ENDROOT
BRANCH   1   4
ATOM      4  C   LIG    1        3.378  -2.175   2.775  0.00  0.00    +0.170 C 
ATOM      5  C   LIG    1        2.365  -3.169   3.347  0.00  0.00    +0.040 C 
ATOM      6  C   LIG    1        2.763  -3.535   4.778  0.00  0.00    +0.030 C 
ATOM      7  C   LIG    1        4.155  -4.171   4.774  0.00  0.00    +0.020 C 
ATOM      8  C   LIG    1        5.168  -3.177   4.202  0.00  0.00    +0.060 C 
ATOM      9  C   LIG    1        4.770  -2.810   2.771  0.00  0.00    -0.080 C 
ATOM     10  C   LIG    1        5.783  -1.816   2.199  0.00  0.00    +0.040 C 
ATOM     11  C   LIG    1        4.752  -4.073   1.908  0.00  0.00    +0.040 C 
ENDBRANCH   1   4
BRANCH   1  12
ATOM     12  C   LIG    1        1.715  -1.106   1.417  0.00  0.00    +0.250 C 
BRANCH  12  13
ATOM     13  C   LIG    1        1.317  -0.740  -0.015  0.00  0.00    +0.070 C 
BRANCH  13  15
ATOM     14  C   LIG    1       -0.016   1.306   0.009  0.00  0.00    +0.050 C 
ATOM     15  C   LIG    1        0.002  -0.004   0.002  0.00  0.00    -0.150 C 
ATOM     16  C   LIG    1       -1.293  -0.775   0.010  0.00  0.00    +0.070 C 
ENDBRANCH  13  15
ENDBRANCH  12  13
ENDBRANCH   1  12
TORSDOF 4
ENDMDL
MODEL      397
REMARK  Name = ZINC000168065356
REMARK                            x       y       z     vdW  Elec       q    Type
REMARK                         _______ _______ _______ _____ _____    ______ ____
ROOT
ATOM      1  N   LIG    1       -2.942  -1.888  -1.417  0.00  0.00    -0.510 N 
ATOM      2  H   LIG    1       -3.668  -1.322  -1.005  0.00  0.00    +0.430 HD
ATOM      3  H   LIG    1       -2.827  -2.733  -0.877  0.00  0.00    +0.430 HD
ENDROOT
BRANCH   1   4
ATOM      4  C   LIG    1       -3.314  -2.235  -2.795  0.00  0.00    +0.170 C 
ATOM      5  C   LIG    1       -3.610  -0.956  -3.581  0.00  0.00    +0.040 C 
ATOM      6  C   LIG    1       -3.998  -1.317  -5.016  0.00  0.00    +0.030 C 
ATOM      7  C   LIG    1       -5.243  -2.205  -5.000  0.00  0.00    +0.020 C 
ATOM      8  C   LIG    1       -4.948  -3.485  -4.214  0.00  0.00    +0.050 C 
ATOM      9  C   LIG    1       -4.560  -3.123  -2.779  0.00  0.00    -0.010 C 
BRANCH   9  10
ATOM     10  C   LIG    1       -4.264  -4.402  -1.993  0.00  0.00    +0.000 C 
ATOM     11  C   LIG    1       -5.544  -5.233  -1.870  0.00  0.00    +0.040 C 
ENDBRANCH   9  10
ENDBRANCH   1   4
BRANCH   1  12
ATOM     12  C   LIG    1       -1.680  -1.137  -1.425  0.00  0.00    +0.250 C 
BRANCH  12  13
ATOM     13  C   LIG    1       -1.293  -0.775   0.010  0.00  0.00    +0.070 C 
BRANCH  13  15
ATOM     14  C   LIG    1       -0.016   1.306   0.009  0.00  0.00    +0.050 C 
ATOM     15  C   LIG    1        0.002  -0.004   0.002  0.00  0.00    -0.150 C 
ATOM     16  C   LIG    1        1.317  -0.740  -0.015  0.00  0.00    +0.070 C 
ENDBRANCH  13  15
ENDBRANCH  12  13
ENDBRANCH   1  12
TORSDOF 5
ENDMDL
MODEL      398
REMARK  Name = ZINC000168065952
REMARK                            x       y       z     vdW  Elec       q    Type
REMARK                         _______ _______ _______ _____ _____    ______ ____
ROOT
ATOM      1  N   LIG    1        2.997  -1.823   1.401  0.00  0.00    -0.510 N 
ATOM      2  H   LIG    1        3.100  -2.583   0.744  0.00  0.00    +0.420 HD
ATOM      3  H   LIG    1        2.026  -1.551   1.451  0.00  0.00    +0.430 HD
ENDROOT
BRANCH   1   4
ATOM      4  C   LIG    1        3.452  -2.258   2.728  0.00  0.00    +0.170 C 
ATOM      5  C   LIG    1        2.502  -3.300   3.252  0.00  0.00    +0.040 C 
ATOM      6  C   LIG    1        2.382  -3.130   4.780  0.00  0.00    +0.040 C 
ATOM      7  C   LIG    1        3.501  -3.726   5.494  0.00  0.00    +0.010 C 
ATOM      8  C   LIG    1        4.848  -3.071   5.127  0.00  0.00    +0.010 C 
ATOM      9  C   LIG    1        5.317  -3.644   3.817  0.00  0.00    +0.050 C 
ATOM     10  C   LIG    1        4.896  -2.785   2.612  0.00  0.00    -0.010 C 
ATOM     11  C   LIG    1        5.013  -3.627   1.340  0.00  0.00    +0.040 C 
ENDBRANCH   1   4
BRANCH   1  12
ATOM     12  C   LIG    1        3.804  -0.679   0.957  0.00  0.00    +0.250 C 
BRANCH  12  13
ATOM     13  C   LIG    1        3.247  -0.145  -0.365  0.00  0.00    +0.070 C 
BRANCH  13  15
ATOM     14  C   LIG    1        5.058   0.848  -1.668  0.00  0.00    +0.050 C 
ATOM     15  C   LIG    1        4.075   1.029  -0.821  0.00  0.00    -0.150 C 
ATOM     16  C   LIG    1        3.772   2.411  -0.302  0.00  0.00    +0.080 C 
ENDBRANCH  13  15
ENDBRANCH  12  13
ENDBRANCH   1  12
TORSDOF 4
ENDMDL
MODEL      399
REMARK  Name = ZINC001209431995
REMARK                            x       y       z     vdW  Elec       q    Type
REMARK                         _______ _______ _______ _____ _____    ______ ____
ROOT
ATOM      1  C   LIG    1       -5.555  -5.432  -4.341  0.00  0.00    +0.240 C 
ENDROOT
BRANCH   1   2
ATOM      2  N   LIG    1       -6.330  -6.218  -3.372  0.00  0.00    -0.380 N 
ATOM      3  H   LIG    1       -7.105  -5.668  -3.035  0.00  0.00    +0.420 HD
BRANCH   2   4
ATOM      4  C   LIG    1       -5.467  -6.593  -2.244  0.00  0.00    +0.160 C 
ATOM      5  C   LIG    1       -5.128  -5.345  -1.426  0.00  0.00    +0.090 C 
ATOM      6  C   LIG    1       -4.177  -7.221  -2.774  0.00  0.00    +0.090 C 
ENDBRANCH   2   4
BRANCH   2   7
ATOM      7  C   LIG    1       -6.838  -7.433  -4.024  0.00  0.00    +0.240 C 
ATOM      8  C   LIG    1       -7.721  -8.207  -3.042  0.00  0.00    +0.080 C 
ENDBRANCH   2   7
ENDBRANCH   1   2
BRANCH   1   9
ATOM      9  C   LIG    1       -5.405  -3.997  -3.830  0.00  0.00    +0.020 C 
BRANCH   9  10
ATOM     10  C   LIG    1       -4.795  -3.125  -4.928  0.00  0.00    +0.020 C 
BRANCH  10  11
ATOM     11  C   LIG    1       -4.645  -1.691  -4.417  0.00  0.00    +0.020 C 
BRANCH  11  12
ATOM     12  C   LIG    1       -4.034  -0.819  -5.516  0.00  0.00    +0.010 C 
BRANCH  12  13
ATOM     13  C   LIG    1       -3.885   0.615  -5.004  0.00  0.00    +0.050 C 
BRANCH  13  15
ATOM     14  C   LIG    1       -3.897   2.564  -6.475  0.00  0.00    +0.010 C 
ATOM     15  C   LIG    1       -3.283   1.474  -6.087  0.00  0.00    -0.060 C 
ENDBRANCH  13  15
ENDBRANCH  12  13
ENDBRANCH  11  12
ENDBRANCH  10  11
ENDBRANCH   9  10
ENDBRANCH   1   9
TORSDOF 9
ENDMDL
MODEL      400
REMARK  Name = ZINC001209431435
REMARK                            x       y       z     vdW  Elec       q    Type
REMARK                         _______ _______ _______ _____ _____    ______ ____
ROOT
ATOM      1  C   LIG    1        4.145  -5.166   3.480  0.00  0.00    +0.250 C 
ENDROOT
BRANCH   1   2
ATOM      2  N   LIG    1        5.427  -5.883   3.464  0.00  0.00    -0.390 N 
ATOM      3  C   LIG    1        6.541  -4.947   3.762  0.00  0.00    +0.250 C 
ATOM      4  C   LIG    1        7.670  -5.886   4.258  0.00  0.00    +0.070 C 
ATOM      5  C   LIG    1        6.900  -6.951   5.071  0.00  0.00    +0.070 C 
ATOM      6  C   LIG    1        5.455  -6.901   4.537  0.00  0.00    +0.160 C 
ATOM      7  C   LIG    1        5.058  -8.268   3.977  0.00  0.00    +0.090 C 
ATOM      8  H   LIG    1        5.570  -6.320   2.566  0.00  0.00    +0.420 HD
ENDBRANCH   1   2
BRANCH   1   9
ATOM      9  C   LIG    1        4.093  -4.188   2.304  0.00  0.00    +0.030 C 
BRANCH   9  10
ATOM     10  C   LIG    1        2.757  -3.441   2.321  0.00  0.00    +0.020 C 
BRANCH  10  11
ATOM     11  C   LIG    1        2.705  -2.464   1.145  0.00  0.00    +0.020 C 
BRANCH  11  12
ATOM     12  C   LIG    1        1.370  -1.717   1.161  0.00  0.00    +0.020 C 
BRANCH  12  13
ATOM     13  C   LIG    1        1.317  -0.740  -0.015  0.00  0.00    +0.050 C 
BRANCH  13  15
ATOM     14  C   LIG    1       -0.016   1.306   0.009  0.00  0.00    +0.010 C 
ATOM     15  C   LIG    1        0.002  -0.004   0.002  0.00  0.00    -0.060 C 
ENDBRANCH  13  15
ENDBRANCH  12  13
ENDBRANCH  11  12
ENDBRANCH  10  11
ENDBRANCH   9  10
ENDBRANCH   1   9
TORSDOF 7
ENDMDL
MODEL      401
REMARK  Name = ZINC001209429214
REMARK                            x       y       z     vdW  Elec       q    Type
REMARK                         _______ _______ _______ _____ _____    ______ ____
ROOT
ATOM      1  N   LIG    1        4.301  -5.498   4.219  0.00  0.00    -0.380 N 
ATOM      2  C   LIG    1        3.398  -6.587   4.620  0.00  0.00    +0.310 C 
ATOM      3  H   LIG    1        4.436  -4.870   4.997  0.00  0.00    +0.420 HD
ENDROOT
BRANCH   1   4
ATOM      4  C   LIG    1        3.711  -4.763   3.093  0.00  0.00    +0.250 C 
BRANCH   4   5
ATOM      5  C   LIG    1        2.445  -4.042   3.562  0.00  0.00    +0.030 C 
BRANCH   5   6
ATOM      6  C   LIG    1        1.831  -3.276   2.389  0.00  0.00    +0.020 C 
BRANCH   6   7
ATOM      7  C   LIG    1        0.565  -2.555   2.857  0.00  0.00    +0.020 C 
BRANCH   7   8
ATOM      8  C   LIG    1       -0.049  -1.788   1.684  0.00  0.00    +0.050 C 
BRANCH   8  10
ATOM      9  C   LIG    1       -1.417   0.214   1.968  0.00  0.00    +0.020 C 
ATOM     10  C   LIG    1       -1.296  -1.078   2.146  0.00  0.00    -0.060 C 
ENDBRANCH   8  10
ENDBRANCH   7   8
ENDBRANCH   6   7
ENDBRANCH   5   6
ENDBRANCH   4   5
ENDBRANCH   1   4
BRANCH   1  11
ATOM     11  C   LIG    1        5.595  -6.061   3.813  0.00  0.00    +0.160 C 
BRANCH  11  12
ATOM     12  C   LIG    1        6.690  -5.009   4.002  0.00  0.00    +0.050 C 
ATOM     13  C   LIG    1        6.802  -4.650   5.486  0.00  0.00    +0.040 C 
ENDBRANCH  11  12
BRANCH  11  14
ATOM     14  C   LIG    1        5.533  -6.472   2.340  0.00  0.00    +0.050 C 
ATOM     15  C   LIG    1        4.544  -7.628   2.175  0.00  0.00    +0.030 C 
ENDBRANCH  11  14
ENDBRANCH   1  11
TORSDOF 9
ENDMDL
MODEL      402
REMARK  Name = ZINC001209438444
REMARK                            x       y       z     vdW  Elec       q    Type
REMARK                         _______ _______ _______ _____ _____    ______ ____
ROOT
ATOM      1  C   LIG    1        4.145  -5.166   3.480  0.00  0.00    +0.030 C 
ENDROOT
BRANCH   1   2
ATOM      2  C   LIG    1        4.093  -4.188   2.304  0.00  0.00    +0.020 C 
BRANCH   2   3
ATOM      3  C   LIG    1        2.757  -3.441   2.321  0.00  0.00    +0.020 C 
BRANCH   3   4
ATOM      4  C   LIG    1        2.705  -2.464   1.145  0.00  0.00    +0.000 C 
BRANCH   4   5
ATOM      5  C   LIG    1        1.370  -1.717   1.161  0.00  0.00    +0.000 C 
BRANCH   5   6
ATOM      6  C   LIG    1        1.317  -0.740  -0.015  0.00  0.00    +0.040 C 
BRANCH   6   8
ATOM      7  C   LIG    1       -0.016   1.306   0.009  0.00  0.00    +0.010 C 
ATOM      8  C   LIG    1        0.002  -0.004   0.002  0.00  0.00    -0.050 C 
ENDBRANCH   6   8
ENDBRANCH   5   6
ENDBRANCH   4   5
ENDBRANCH   3   4
ENDBRANCH   2   3
ENDBRANCH   1   2
BRANCH   1   9
ATOM      9  C   LIG    1        5.480  -5.912   3.463  0.00  0.00    +0.250 C 
BRANCH   9  10
ATOM     10  N   LIG    1        5.530  -6.851   4.592  0.00  0.00    -0.390 N 
ATOM     11  C   LIG    1        4.504  -7.886   4.414  0.00  0.00    +0.300 C 
ATOM     12  H   LIG    1        5.359  -6.352   5.452  0.00  0.00    +0.420 HD
BRANCH  10  13
ATOM     13  C   LIG    1        6.857  -7.481   4.647  0.00  0.00    +0.250 C 
BRANCH  13  14
ATOM     14  C   LIG    1        6.951  -8.363   5.893  0.00  0.00    +0.030 C 
ATOM     15  C   LIG    1        8.332  -9.019   5.950  0.00  0.00    +0.060 C 
ENDBRANCH  13  14
ENDBRANCH  10  13
ENDBRANCH   9  10
ENDBRANCH   1   9
TORSDOF 10
ENDMDL
MODEL      403
REMARK  Name = ZINC001209439125
REMARK                            x       y       z     vdW  Elec       q    Type
REMARK                         _______ _______ _______ _____ _____    ______ ____
ROOT
ATOM      1  C   LIG    1        4.145  -5.166   3.480  0.00  0.00    +0.030 C 
ENDROOT
BRANCH   1   2
ATOM      2  C   LIG    1        4.093  -4.188   2.304  0.00  0.00    +0.020 C 
BRANCH   2   3
ATOM      3  C   LIG    1        2.757  -3.441   2.321  0.00  0.00    +0.020 C 
BRANCH   3   4
ATOM      4  C   LIG    1        2.705  -2.464   1.145  0.00  0.00    +0.000 C 
BRANCH   4   5
ATOM      5  C   LIG    1        1.370  -1.717   1.161  0.00  0.00    +0.000 C 
BRANCH   5   6
ATOM      6  C   LIG    1        1.317  -0.740  -0.015  0.00  0.00    +0.040 C 
BRANCH   6   8
ATOM      7  C   LIG    1       -0.016   1.306   0.009  0.00  0.00    +0.010 C 
ATOM      8  C   LIG    1        0.002  -0.004   0.002  0.00  0.00    -0.050 C 
ENDBRANCH   6   8
ENDBRANCH   5   6
ENDBRANCH   4   5
ENDBRANCH   3   4
ENDBRANCH   2   3
ENDBRANCH   1   2
BRANCH   1   9
ATOM      9  C   LIG    1        5.480  -5.912   3.463  0.00  0.00    +0.250 C 
BRANCH   9  10
ATOM     10  N   LIG    1        5.530  -6.851   4.592  0.00  0.00    -0.380 N 
ATOM     11  C   LIG    1        4.504  -7.886   4.414  0.00  0.00    +0.310 C 
ATOM     12  H   LIG    1        5.359  -6.352   5.452  0.00  0.00    +0.430 HD
BRANCH  10  13
ATOM     13  C   LIG    1        6.857  -7.481   4.647  0.00  0.00    +0.290 C 
BRANCH  13  14
ATOM     14  C   LIG    1        6.950  -8.350   5.875  0.00  0.00    -0.110 C 
ATOM     15  C   LIG    1        7.276  -9.613   5.760  0.00  0.00    +0.120 C 
ENDBRANCH  13  14
ENDBRANCH  10  13
ENDBRANCH   9  10
ENDBRANCH   1   9
TORSDOF 10
ENDMDL
MODEL      404
REMARK  Name = ZINC001209438678
REMARK                            x       y       z     vdW  Elec       q    Type
REMARK                         _______ _______ _______ _____ _____    ______ ____
ROOT
ATOM      1  C   LIG    1        4.145  -5.166   3.480  0.00  0.00    +0.020 C 
ENDROOT
BRANCH   1   2
ATOM      2  C   LIG    1        4.093  -4.188   2.304  0.00  0.00    +0.020 C 
BRANCH   2   3
ATOM      3  C   LIG    1        2.757  -3.441   2.321  0.00  0.00    +0.020 C 
BRANCH   3   4
ATOM      4  C   LIG    1        2.705  -2.464   1.145  0.00  0.00    +0.000 C 
BRANCH   4   5
ATOM      5  C   LIG    1        1.370  -1.717   1.161  0.00  0.00    +0.000 C 
BRANCH   5   6
ATOM      6  C   LIG    1        1.317  -0.740  -0.015  0.00  0.00    +0.040 C 
BRANCH   6   8
ATOM      7  C   LIG    1       -0.016   1.306   0.009  0.00  0.00    +0.010 C 
ATOM      8  C   LIG    1        0.002  -0.004   0.002  0.00  0.00    -0.050 C 
ENDBRANCH   6   8
ENDBRANCH   5   6
ENDBRANCH   4   5
ENDBRANCH   3   4
ENDBRANCH   2   3
ENDBRANCH   1   2
BRANCH   1   9
ATOM      9  C   LIG    1        5.480  -5.912   3.463  0.00  0.00    +0.250 C 
BRANCH   9  10
ATOM     10  N   LIG    1        5.530  -6.851   4.592  0.00  0.00    -0.410 N 
ATOM     11  C   LIG    1        4.909  -8.156   4.298  0.00  0.00    +0.290 C 
ATOM     12  C   LIG    1        6.034  -8.812   5.111  0.00  0.00    +0.090 C 
ATOM     13  C   LIG    1        6.821  -7.554   4.713  0.00  0.00    +0.170 C 
ATOM     14  C   LIG    1        7.565  -7.697   3.384  0.00  0.00    +0.110 C 
ATOM     15  H   LIG    1        5.214  -6.441   5.458  0.00  0.00    +0.440 HD
ENDBRANCH   9  10
ENDBRANCH   1   9
TORSDOF 8
ENDMDL
MODEL      405
REMARK  Name = ZINC001209442134
REMARK                            x       y       z     vdW  Elec       q    Type
REMARK                         _______ _______ _______ _____ _____    ______ ____
ROOT
ATOM      1  C   LIG    1        4.145  -5.166   3.480  0.00  0.00    +0.020 C 
ENDROOT
BRANCH   1   2
ATOM      2  C   LIG    1        4.093  -4.188   2.304  0.00  0.00    +0.020 C 
BRANCH   2   3
ATOM      3  C   LIG    1        2.757  -3.441   2.321  0.00  0.00    +0.000 C 
BRANCH   3   4
ATOM      4  C   LIG    1        2.705  -2.464   1.145  0.00  0.00    +0.000 C 
BRANCH   4   5
ATOM      5  C   LIG    1        1.370  -1.717   1.161  0.00  0.00    +0.000 C 
BRANCH   5   6
ATOM      6  C   LIG    1        1.317  -0.740  -0.015  0.00  0.00    +0.040 C 
BRANCH   6   8
ATOM      7  C   LIG    1       -0.016   1.306   0.009  0.00  0.00    +0.010 C 
ATOM      8  C   LIG    1        0.002  -0.004   0.002  0.00  0.00    -0.050 C 
ENDBRANCH   6   8
ENDBRANCH   5   6
ENDBRANCH   4   5
ENDBRANCH   3   4
ENDBRANCH   2   3
ENDBRANCH   1   2
BRANCH   1   9
ATOM      9  C   LIG    1        5.480  -5.912   3.463  0.00  0.00    +0.010 C 
BRANCH   9  10
ATOM     10  C   LIG    1        5.533  -6.890   4.639  0.00  0.00    +0.250 C 
BRANCH  10  11
ATOM     11  N   LIG    1        6.815  -7.607   4.623  0.00  0.00    -0.410 N 
ATOM     12  C   LIG    1        7.902  -6.880   5.305  0.00  0.00    +0.280 C 
ATOM     13  C   LIG    1        8.393  -8.232   5.843  0.00  0.00    +0.090 C 
ATOM     14  C   LIG    1        6.922  -8.640   5.670  0.00  0.00    +0.290 C 
ATOM     15  H   LIG    1        7.068  -7.939   3.704  0.00  0.00    +0.440 HD
ENDBRANCH  10  11
ENDBRANCH   9  10
ENDBRANCH   1   9
TORSDOF 9
ENDMDL
MODEL      406
REMARK  Name = ZINC001209438013
REMARK                            x       y       z     vdW  Elec       q    Type
REMARK                         _______ _______ _______ _____ _____    ______ ____
ROOT
ATOM      1  C   LIG    1       -4.000  -5.238  -3.533  0.00  0.00    +0.030 C 
ENDROOT
BRANCH   1   2
ATOM      2  C   LIG    1       -3.974  -4.272  -2.346  0.00  0.00    +0.020 C 
BRANCH   2   3
ATOM      3  C   LIG    1       -2.659  -3.489  -2.355  0.00  0.00    +0.020 C 
BRANCH   3   4
ATOM      4  C   LIG    1       -2.633  -2.524  -1.168  0.00  0.00    +0.000 C 
BRANCH   4   5
ATOM      5  C   LIG    1       -1.319  -1.741  -1.176  0.00  0.00    +0.000 C 
BRANCH   5   6
ATOM      6  C   LIG    1       -1.293  -0.775   0.010  0.00  0.00    +0.040 C 
BRANCH   6   8
ATOM      7  C   LIG    1       -0.016   1.306   0.009  0.00  0.00    +0.010 C 
ATOM      8  C   LIG    1        0.002  -0.004   0.002  0.00  0.00    -0.050 C 
ENDBRANCH   6   8
ENDBRANCH   5   6
ENDBRANCH   4   5
ENDBRANCH   3   4
ENDBRANCH   2   3
ENDBRANCH   1   2
BRANCH   1   9
ATOM      9  C   LIG    1       -5.314  -6.021  -3.525  0.00  0.00    +0.250 C 
BRANCH   9  10
ATOM     10  N   LIG    1       -5.339  -6.947  -4.664  0.00  0.00    -0.360 N 
ATOM     11  C   LIG    1       -4.285  -7.957  -4.497  0.00  0.00    +0.320 C 
ATOM     12  H   LIG    1       -5.182  -6.434  -5.518  0.00  0.00    +0.420 HD
BRANCH  10  13
ATOM     13  C   LIG    1       -6.648  -7.612  -4.726  0.00  0.00    +0.090 C 
ATOM     14  C   LIG    1       -7.565  -7.259  -5.898  0.00  0.00    +0.100 C 
ATOM     15  C   LIG    1       -6.874  -8.623  -5.852  0.00  0.00    +0.100 C 
ENDBRANCH  10  13
ENDBRANCH   9  10
ENDBRANCH   1   9
TORSDOF 9
ENDMDL
MODEL      407
REMARK  Name = ZINC001209438132
REMARK                            x       y       z     vdW  Elec       q    Type
REMARK                         _______ _______ _______ _____ _____    ______ ____
ROOT
ATOM      1  C   LIG    1        4.145  -5.166   3.480  0.00  0.00    +0.030 C 
ENDROOT
BRANCH   1   2
ATOM      2  C   LIG    1        4.093  -4.188   2.304  0.00  0.00    +0.020 C 
BRANCH   2   3
ATOM      3  C   LIG    1        2.757  -3.441   2.321  0.00  0.00    +0.020 C 
BRANCH   3   4
ATOM      4  C   LIG    1        2.705  -2.464   1.145  0.00  0.00    +0.000 C 
BRANCH   4   5
ATOM      5  C   LIG    1        1.370  -1.717   1.161  0.00  0.00    +0.000 C 
BRANCH   5   6
ATOM      6  C   LIG    1        1.317  -0.740  -0.015  0.00  0.00    +0.040 C 
BRANCH   6   8
ATOM      7  C   LIG    1       -0.016   1.306   0.009  0.00  0.00    +0.010 C 
ATOM      8  C   LIG    1        0.002  -0.004   0.002  0.00  0.00    -0.050 C 
ENDBRANCH   6   8
ENDBRANCH   5   6
ENDBRANCH   4   5
ENDBRANCH   3   4
ENDBRANCH   2   3
ENDBRANCH   1   2
BRANCH   1   9
ATOM      9  C   LIG    1        5.480  -5.912   3.463  0.00  0.00    +0.250 C 
BRANCH   9  10
ATOM     10  N   LIG    1        5.530  -6.851   4.592  0.00  0.00    -0.400 N 
ATOM     11  C   LIG    1        4.540  -7.940   4.397  0.00  0.00    +0.250 C 
ATOM     12  C   LIG    1        5.083  -9.079   5.297  0.00  0.00    +0.070 C 
ATOM     13  C   LIG    1        6.614  -8.959   5.120  0.00  0.00    +0.050 C 
ATOM     14  C   LIG    1        6.853  -7.512   4.648  0.00  0.00    +0.250 C 
ATOM     15  H   LIG    1        5.348  -6.365   5.457  0.00  0.00    +0.430 HD
ENDBRANCH   9  10
ENDBRANCH   1   9
TORSDOF 8
ENDMDL
MODEL      408
REMARK  Name = ZINC001209442267
REMARK                            x       y       z     vdW  Elec       q    Type
REMARK                         _______ _______ _______ _____ _____    ______ ____
ROOT
ATOM      1  C   LIG    1       -4.000  -5.238  -3.533  0.00  0.00    +0.020 C 
ENDROOT
BRANCH   1   2
ATOM      2  C   LIG    1       -3.974  -4.272  -2.346  0.00  0.00    +0.020 C 
BRANCH   2   3
ATOM      3  C   LIG    1       -2.659  -3.489  -2.355  0.00  0.00    +0.000 C 
BRANCH   3   4
ATOM      4  C   LIG    1       -2.633  -2.524  -1.168  0.00  0.00    +0.000 C 
BRANCH   4   5
ATOM      5  C   LIG    1       -1.319  -1.741  -1.176  0.00  0.00    +0.000 C 
BRANCH   5   6
ATOM      6  C   LIG    1       -1.293  -0.775   0.010  0.00  0.00    +0.040 C 
BRANCH   6   8
ATOM      7  C   LIG    1       -0.016   1.306   0.009  0.00  0.00    +0.010 C 
ATOM      8  C   LIG    1        0.002  -0.004   0.002  0.00  0.00    -0.050 C 
ENDBRANCH   6   8
ENDBRANCH   5   6
ENDBRANCH   4   5
ENDBRANCH   3   4
ENDBRANCH   2   3
ENDBRANCH   1   2
BRANCH   1   9
ATOM      9  C   LIG    1       -5.314  -6.021  -3.525  0.00  0.00    +0.030 C 
BRANCH   9  10
ATOM     10  C   LIG    1       -5.340  -6.986  -4.711  0.00  0.00    +0.250 C 
BRANCH  10  11
ATOM     11  N   LIG    1       -6.602  -7.738  -4.703  0.00  0.00    -0.390 N 
ATOM     12  C   LIG    1       -7.723  -6.815  -4.928  0.00  0.00    +0.300 C 
ATOM     13  H   LIG    1       -6.716  -8.194  -3.811  0.00  0.00    +0.420 HD
BRANCH  11  14
ATOM     14  C   LIG    1       -6.578  -8.747  -5.770  0.00  0.00    +0.250 C 
ATOM     15  C   LIG    1       -7.837  -9.612  -5.683  0.00  0.00    +0.080 C 
ENDBRANCH  11  14
ENDBRANCH  10  11
ENDBRANCH   9  10
ENDBRANCH   1   9
TORSDOF 10
ENDMDL
MODEL      409
REMARK  Name = ZINC001209438679
REMARK                            x       y       z     vdW  Elec       q    Type
REMARK                         _______ _______ _______ _____ _____    ______ ____
ROOT
ATOM      1  C   LIG    1        4.145  -5.166   3.480  0.00  0.00    +0.010 C 
ENDROOT
BRANCH   1   2
ATOM      2  C   LIG    1        4.093  -4.188   2.304  0.00  0.00    +0.020 C 
BRANCH   2   3
ATOM      3  C   LIG    1        2.757  -3.441   2.321  0.00  0.00    +0.020 C 
BRANCH   3   4
ATOM      4  C   LIG    1        2.705  -2.464   1.145  0.00  0.00    +0.000 C 
BRANCH   4   5
ATOM      5  C   LIG    1        1.370  -1.717   1.161  0.00  0.00    +0.000 C 
BRANCH   5   6
ATOM      6  C   LIG    1        1.317  -0.740  -0.015  0.00  0.00    +0.040 C 
BRANCH   6   8
ATOM      7  C   LIG    1       -0.016   1.306   0.009  0.00  0.00    +0.010 C 
ATOM      8  C   LIG    1        0.002  -0.004   0.002  0.00  0.00    -0.050 C 
ENDBRANCH   6   8
ENDBRANCH   5   6
ENDBRANCH   4   5
ENDBRANCH   3   4
ENDBRANCH   2   3
ENDBRANCH   1   2
BRANCH   1   9
ATOM      9  C   LIG    1        5.480  -5.912   3.463  0.00  0.00    +0.250 C 
BRANCH   9  10
ATOM     10  N   LIG    1        5.530  -6.851   4.592  0.00  0.00    -0.410 N 
ATOM     11  C   LIG    1        4.909  -8.156   4.298  0.00  0.00    +0.290 C 
ATOM     12  C   LIG    1        6.034  -8.812   5.111  0.00  0.00    +0.090 C 
ATOM     13  C   LIG    1        6.821  -7.554   4.713  0.00  0.00    +0.190 C 
ATOM     14  C   LIG    1        7.711  -7.013   5.833  0.00  0.00    +0.090 C 
ATOM     15  H   LIG    1        5.214  -6.441   5.458  0.00  0.00    +0.430 HD
ENDBRANCH   9  10
ENDBRANCH   1   9
TORSDOF 8
ENDMDL
MODEL      410
REMARK  Name = ZINC001209435798
REMARK                            x       y       z     vdW  Elec       q    Type
REMARK                         _______ _______ _______ _____ _____    ______ ____
ROOT
ATOM      1  C   LIG    1        4.145  -5.166   3.480  0.00  0.00    +0.240 C 
ENDROOT
BRANCH   1   2
ATOM      2  N   LIG    1        5.427  -5.883   3.464  0.00  0.00    -0.380 N 
ATOM      3  C   LIG    1        6.522  -4.933   3.699  0.00  0.00    +0.320 C 
ATOM      4  H   LIG    1        5.553  -6.326   2.566  0.00  0.00    +0.420 HD
BRANCH   2   5
ATOM      5  C   LIG    1        5.430  -6.904   4.519  0.00  0.00    +0.050 C 
ATOM      6  C   LIG    1        5.239  -6.232   5.880  0.00  0.00    +0.080 C 
ATOM      7  C   LIG    1        6.765  -7.651   4.503  0.00  0.00    +0.080 C 
ATOM      8  C   LIG    1        4.289  -7.894   4.274  0.00  0.00    +0.090 C 
ENDBRANCH   2   5
ENDBRANCH   1   2
BRANCH   1   9
ATOM      9  C   LIG    1        4.093  -4.188   2.304  0.00  0.00    +0.030 C 
BRANCH   9  10
ATOM     10  C   LIG    1        2.757  -3.441   2.321  0.00  0.00    +0.020 C 
BRANCH  10  11
ATOM     11  C   LIG    1        2.705  -2.464   1.145  0.00  0.00    +0.020 C 
BRANCH  11  12
ATOM     12  C   LIG    1        1.370  -1.717   1.161  0.00  0.00    +0.010 C 
BRANCH  12  13
ATOM     13  C   LIG    1        1.317  -0.740  -0.015  0.00  0.00    +0.050 C 
BRANCH  13  15
ATOM     14  C   LIG    1       -0.016   1.306   0.009  0.00  0.00    +0.010 C 
ATOM     15  C   LIG    1        0.002  -0.004   0.002  0.00  0.00    -0.060 C 
ENDBRANCH  13  15
ENDBRANCH  12  13
ENDBRANCH  11  12
ENDBRANCH  10  11
ENDBRANCH   9  10
ENDBRANCH   1   9
TORSDOF 8
ENDMDL
MODEL      411
REMARK  Name = ZINC001209438663
REMARK                            x       y       z     vdW  Elec       q    Type
REMARK                         _______ _______ _______ _____ _____    ______ ____
ROOT
ATOM      1  C   LIG    1       -4.000  -5.238  -3.533  0.00  0.00    +0.030 C 
ENDROOT
BRANCH   1   2
ATOM      2  C   LIG    1       -3.974  -4.272  -2.346  0.00  0.00    +0.020 C 
BRANCH   2   3
ATOM      3  C   LIG    1       -2.659  -3.489  -2.355  0.00  0.00    +0.020 C 
BRANCH   3   4
ATOM      4  C   LIG    1       -2.633  -2.524  -1.168  0.00  0.00    +0.000 C 
BRANCH   4   5
ATOM      5  C   LIG    1       -1.319  -1.741  -1.176  0.00  0.00    +0.000 C 
BRANCH   5   6
ATOM      6  C   LIG    1       -1.293  -0.775   0.010  0.00  0.00    +0.040 C 
BRANCH   6   8
ATOM      7  C   LIG    1       -0.016   1.306   0.009  0.00  0.00    +0.010 C 
ATOM      8  C   LIG    1        0.002  -0.004   0.002  0.00  0.00    -0.050 C 
ENDBRANCH   6   8
ENDBRANCH   5   6
ENDBRANCH   4   5
ENDBRANCH   3   4
ENDBRANCH   2   3
ENDBRANCH   1   2
BRANCH   1   9
ATOM      9  C   LIG    1       -5.314  -6.021  -3.525  0.00  0.00    +0.240 C 
BRANCH   9  10
ATOM     10  N   LIG    1       -5.339  -6.947  -4.664  0.00  0.00    -0.380 N 
ATOM     11  C   LIG    1       -4.285  -7.957  -4.497  0.00  0.00    +0.310 C 
ATOM     12  H   LIG    1       -5.182  -6.434  -5.518  0.00  0.00    +0.420 HD
BRANCH  10  13
ATOM     13  C   LIG    1       -6.648  -7.612  -4.726  0.00  0.00    +0.160 C 
ATOM     14  C   LIG    1       -6.674  -8.578  -5.912  0.00  0.00    +0.090 C 
ATOM     15  C   LIG    1       -7.746  -6.561  -4.899  0.00  0.00    +0.080 C 
ENDBRANCH  10  13
ENDBRANCH   9  10
ENDBRANCH   1   9
TORSDOF 9
ENDMDL
MODEL      412
REMARK  Name = ZINC000651396499
REMARK                            x       y       z     vdW  Elec       q    Type
REMARK                         _______ _______ _______ _____ _____    ______ ____
ROOT
ATOM      1  C   LIG    1       -2.723  -2.475  -1.200  0.00  0.00    +0.170 C 
ENDROOT
BRANCH   1   2
ATOM      2  N   LIG    1       -3.777  -1.458  -1.315  0.00  0.00    -0.470 N 
ATOM      3  H   LIG    1       -4.668  -1.911  -1.450  0.00  0.00    +0.430 HD
ATOM      4  H   LIG    1       -3.582  -0.859  -2.104  0.00  0.00    +0.420 HD
BRANCH   2   5
ATOM      5  C   LIG    1       -3.817  -0.653  -0.087  0.00  0.00    -0.050 C 
ATOM      6  C   LIG    1       -3.405   0.817  -0.192  0.00  0.00    +0.110 C 
ATOM      7  C   LIG    1       -4.877   0.447   0.002  0.00  0.00    +0.110 C 
BRANCH   5   8
ATOM      8  C   LIG    1       -3.461  -1.397   1.201  0.00  0.00    +0.080 C 
ATOM      9  C   LIG    1       -3.639  -0.459   2.397  0.00  0.00    +0.060 C 
ENDBRANCH   5   8
ENDBRANCH   2   5
ENDBRANCH   1   2
BRANCH   1  10
ATOM     10  C   LIG    1       -1.370  -1.848  -1.540  0.00  0.00    +0.060 C 
BRANCH  10  11
ATOM     11  C   LIG    1       -0.964  -0.876  -0.430  0.00  0.00    +0.040 C 
BRANCH  11  13
ATOM     12  C   LIG    1        0.555   1.001  -0.789  0.00  0.00    +0.030 C 
ATOM     13  C   LIG    1        0.392  -0.298  -0.739  0.00  0.00    -0.060 C 
ENDBRANCH  11  13
ENDBRANCH  10  11
ENDBRANCH   1  10
BRANCH   1  14
ATOM     14  C   LIG    1       -3.013  -3.621  -2.171  0.00  0.00    +0.050 C 
BRANCH  14  15
ATOM     15  C   LIG    1       -4.264  -4.373  -1.714  0.00  0.00    -0.000 C 
ATOM     16  C   LIG    1       -4.480  -5.595  -2.609  0.00  0.00    +0.030 C 
ENDBRANCH  14  15
ENDBRANCH   1  14
TORSDOF 8
ENDMDL
MODEL      413
REMARK  Name = ZINC000651396498
REMARK                            x       y       z     vdW  Elec       q    Type
REMARK                         _______ _______ _______ _____ _____    ______ ____
ROOT
ATOM      1  C   LIG    1       -3.099  -2.743  -1.301  0.00  0.00    +0.160 C 
ENDROOT
BRANCH   1   2
ATOM      2  N   LIG    1       -3.010  -3.676  -0.170  0.00  0.00    -0.470 N 
ATOM      3  H   LIG    1       -2.994  -3.157   0.695  0.00  0.00    +0.430 HD
ATOM      4  H   LIG    1       -2.166  -4.222  -0.250  0.00  0.00    +0.420 HD
BRANCH   2   5
ATOM      5  C   LIG    1       -4.175  -4.572  -0.181  0.00  0.00    -0.050 C 
ATOM      6  C   LIG    1       -3.911  -6.072  -0.332  0.00  0.00    +0.110 C 
ATOM      7  C   LIG    1       -4.360  -5.506   1.016  0.00  0.00    +0.110 C 
BRANCH   5   8
ATOM      8  C   LIG    1       -5.436  -4.007  -0.838  0.00  0.00    +0.080 C 
ATOM      9  C   LIG    1       -6.521  -5.084  -0.869  0.00  0.00    +0.060 C 
ENDBRANCH   5   8
ENDBRANCH   2   5
ENDBRANCH   1   2
BRANCH   1  10
ATOM     10  C   LIG    1       -3.389  -1.335  -0.778  0.00  0.00    +0.060 C 
BRANCH  10  11
ATOM     11  C   LIG    1       -4.771  -1.308  -0.122  0.00  0.00    +0.050 C 
BRANCH  11  13
ATOM     12  C   LIG    1       -6.143   0.706   0.018  0.00  0.00    +0.050 C 
ATOM     13  C   LIG    1       -5.056   0.079   0.393  0.00  0.00    -0.070 C 
ENDBRANCH  11  13
ENDBRANCH  10  11
ENDBRANCH   1  10
BRANCH   1  14
ATOM     14  C   LIG    1       -1.774  -2.741  -2.066  0.00  0.00    +0.050 C 
BRANCH  14  15
ATOM     15  C   LIG    1       -1.629  -4.054  -2.838  0.00  0.00    +0.010 C 
ATOM     16  C   LIG    1       -0.375  -3.995  -3.712  0.00  0.00    +0.030 C 
ENDBRANCH  14  15
ENDBRANCH   1  14
TORSDOF 8
ENDMDL
MODEL      414
REMARK  Name = ZINC000651397358
REMARK                            x       y       z     vdW  Elec       q    Type
REMARK                         _______ _______ _______ _____ _____    ______ ____
ROOT
ATOM      1  C   LIG    1       -3.954  -4.252  -2.215  0.00  0.00    +0.170 C 
ATOM      2  C   LIG    1       -3.800  -5.298  -3.321  0.00  0.00    +0.080 C 
ENDROOT
BRANCH   1   3
ATOM      3  N   LIG    1       -4.979  -3.275  -2.605  0.00  0.00    -0.480 N 
ATOM      4  H   LIG    1       -4.877  -3.052  -3.584  0.00  0.00    +0.430 HD
ATOM      5  H   LIG    1       -4.870  -2.435  -2.056  0.00  0.00    +0.420 HD
BRANCH   3   6
ATOM      6  C   LIG    1       -6.313  -3.844  -2.369  0.00  0.00    -0.050 C 
ATOM      7  C   LIG    1       -7.159  -3.223  -1.256  0.00  0.00    +0.110 C 
ATOM      8  C   LIG    1       -7.524  -2.977  -2.721  0.00  0.00    +0.110 C 
BRANCH   6   9
ATOM      9  C   LIG    1       -6.436  -5.353  -2.593  0.00  0.00    +0.080 C 
ATOM     10  C   LIG    1       -7.835  -5.817  -2.183  0.00  0.00    +0.050 C 
ENDBRANCH   6   9
ENDBRANCH   3   6
ENDBRANCH   1   3
BRANCH   1  11
ATOM     11  C   LIG    1       -2.620  -3.534  -2.003  0.00  0.00    +0.050 C 
BRANCH  11  12
ATOM     12  C   LIG    1       -2.739  -2.577  -0.816  0.00  0.00    +0.000 C 
BRANCH  12  13
ATOM     13  C   LIG    1       -1.404  -1.859  -0.604  0.00  0.00    +0.020 C 
BRANCH  13  14
ATOM     14  C   LIG    1       -1.523  -0.901   0.584  0.00  0.00    +0.050 C 
BRANCH  14  16
ATOM     15  C   LIG    1       -0.166   1.115   0.813  0.00  0.00    +0.020 C 
ATOM     16  C   LIG    1       -0.209  -0.194   0.792  0.00  0.00    -0.060 C 
ENDBRANCH  14  16
ENDBRANCH  13  14
ENDBRANCH  12  13
ENDBRANCH  11  12
ENDBRANCH   1  11
TORSDOF 8
ENDMDL
MODEL      415
REMARK  Name = ZINC000651397357
REMARK                            x       y       z     vdW  Elec       q    Type
REMARK                         _______ _______ _______ _____ _____    ______ ____
ROOT
ATOM      1  C   LIG    1       -3.974  -4.272  -2.346  0.00  0.00    +0.170 C 
ATOM      2  C   LIG    1       -4.055  -5.146  -3.600  0.00  0.00    +0.080 C 
ENDROOT
BRANCH   1   3
ATOM      3  N   LIG    1       -4.029  -5.124  -1.151  0.00  0.00    -0.470 N 
ATOM      4  H   LIG    1       -3.893  -4.557  -0.327  0.00  0.00    +0.430 HD
ATOM      5  H   LIG    1       -3.302  -5.822  -1.202  0.00  0.00    +0.420 HD
BRANCH   3   6
ATOM      6  C   LIG    1       -5.339  -5.785  -1.080  0.00  0.00    -0.050 C 
ATOM      7  C   LIG    1       -5.380  -7.298  -1.298  0.00  0.00    +0.110 C 
ATOM      8  C   LIG    1       -5.595  -6.721   0.102  0.00  0.00    +0.110 C 
BRANCH   6   9
ATOM      9  C   LIG    1       -6.521  -4.963  -1.599  0.00  0.00    +0.080 C 
ATOM     10  C   LIG    1       -7.808  -5.779  -1.461  0.00  0.00    +0.060 C 
ENDBRANCH   6   9
ENDBRANCH   3   6
ENDBRANCH   1   3
BRANCH   1  11
ATOM     11  C   LIG    1       -2.659  -3.489  -2.355  0.00  0.00    +0.050 C 
BRANCH  11  12
ATOM     12  C   LIG    1       -2.633  -2.524  -1.168  0.00  0.00    -0.000 C 
BRANCH  12  13
ATOM     13  C   LIG    1       -1.319  -1.741  -1.176  0.00  0.00    +0.020 C 
BRANCH  13  14
ATOM     14  C   LIG    1       -1.293  -0.775   0.010  0.00  0.00    +0.050 C 
BRANCH  14  16
ATOM     15  C   LIG    1       -0.016   1.306   0.009  0.00  0.00    +0.020 C 
ATOM     16  C   LIG    1        0.002  -0.004   0.002  0.00  0.00    -0.060 C 
ENDBRANCH  14  16
ENDBRANCH  13  14
ENDBRANCH  12  13
ENDBRANCH  11  12
ENDBRANCH   1  11
TORSDOF 8
ENDMDL
MODEL      416
REMARK  Name = ZINC000651666733
REMARK                            x       y       z     vdW  Elec       q    Type
REMARK                         _______ _______ _______ _____ _____    ______ ____
ROOT
ATOM      1  C   LIG    1        1.270  -2.719   0.817  0.00  0.00    +0.010 C 
ATOM      2  C   LIG    1        1.172  -1.625   1.909  0.00  0.00    +0.050 C 
ATOM      3  C   LIG    1        1.886  -2.243   3.129  0.00  0.00    +0.040 C 
ATOM      4  C   LIG    1        2.847  -3.312   2.581  0.00  0.00    +0.160 C 
ATOM      5  C   LIG    1        2.683  -3.311   1.045  0.00  0.00    +0.050 C 
ENDROOT
BRANCH   4   6
ATOM      6  N   LIG    1        4.231  -2.977   2.942  0.00  0.00    -0.510 N 
ATOM      7  H   LIG    1        4.383  -1.988   2.811  0.00  0.00    +0.420 HD
ATOM      8  H   LIG    1        4.867  -3.496   2.356  0.00  0.00    +0.430 HD
BRANCH   6   9
ATOM      9  C   LIG    1        4.468  -3.325   4.350  0.00  0.00    +0.170 C 
BRANCH   9  10
ATOM     10  C   LIG    1        4.091  -4.790   4.583  0.00  0.00    +0.050 C 
ATOM     11  C   LIG    1        5.030  -5.692   3.780  0.00  0.00    +0.030 C 
ENDBRANCH   9  10
BRANCH   9  12
ATOM     12  C   LIG    1        3.612  -2.429   5.248  0.00  0.00    +0.040 C 
ATOM     13  C   LIG    1        4.038  -0.971   5.068  0.00  0.00    +0.040 C 
ENDBRANCH   9  12
ENDBRANCH   6   9
ENDBRANCH   4   6
BRANCH   1  14
ATOM     14  C   LIG    1        1.158  -2.104  -0.579  0.00  0.00    +0.060 C 
BRANCH  14  16
ATOM     15  C   LIG    1       -0.440  -0.344  -1.138  0.00  0.00    +0.020 C 
ATOM     16  C   LIG    1       -0.243  -1.593  -0.792  0.00  0.00    -0.060 C 
ENDBRANCH  14  16
ENDBRANCH   1  14
TORSDOF 6
ENDMDL
MODEL      417
REMARK  Name = ZINC000651666731
REMARK                            x       y       z     vdW  Elec       q    Type
REMARK                         _______ _______ _______ _____ _____    ______ ____
ROOT
ATOM      1  C   LIG    1        1.645  -1.754   0.804  0.00  0.00    +0.010 C 
ATOM      2  C   LIG    1        1.579  -0.907   2.092  0.00  0.00    +0.050 C 
ATOM      3  C   LIG    1        2.381  -1.730   3.130  0.00  0.00    +0.040 C 
ATOM      4  C   LIG    1        3.544  -2.305   2.285  0.00  0.00    +0.150 C 
ATOM      5  C   LIG    1        2.895  -2.644   0.926  0.00  0.00    +0.050 C 
ENDROOT
BRANCH   4   6
ATOM      6  N   LIG    1        4.087  -3.517   2.914  0.00  0.00    -0.500 N 
ATOM      7  H   LIG    1        4.620  -4.039   2.234  0.00  0.00    +0.430 HD
ATOM      8  H   LIG    1        3.327  -4.087   3.256  0.00  0.00    +0.420 HD
BRANCH   6   9
ATOM      9  C   LIG    1        4.958  -3.139   4.035  0.00  0.00    +0.170 C 
BRANCH   9  10
ATOM     10  C   LIG    1        4.103  -2.630   5.196  0.00  0.00    +0.040 C 
ATOM     11  C   LIG    1        3.117  -3.720   5.621  0.00  0.00    +0.040 C 
ENDBRANCH   9  10
BRANCH   9  12
ATOM     12  C   LIG    1        5.917  -2.036   3.585  0.00  0.00    +0.050 C 
ATOM     13  C   LIG    1        6.777  -2.547   2.427  0.00  0.00    +0.020 C 
ENDBRANCH   9  12
ENDBRANCH   6   9
ENDBRANCH   4   6
BRANCH   1  14
ATOM     14  C   LIG    1        1.770  -0.841  -0.418  0.00  0.00    +0.060 C 
BRANCH  14  16
ATOM     15  C   LIG    1        0.541   1.257  -0.646  0.00  0.00    +0.020 C 
ATOM     16  C   LIG    1        0.497  -0.051  -0.586  0.00  0.00    -0.060 C 
ENDBRANCH  14  16
ENDBRANCH   1  14
TORSDOF 6
ENDMDL
MODEL      418
REMARK  Name = ZINC000651668276
REMARK                            x       y       z     vdW  Elec       q    Type
REMARK                         _______ _______ _______ _____ _____    ______ ____
ROOT
ATOM      1  C   LIG    1       -0.994  -3.353  -1.249  0.00  0.00    +0.000 C 
ATOM      2  C   LIG    1       -0.998  -2.163  -2.229  0.00  0.00    +0.050 C 
ATOM      3  C   LIG    1       -2.120  -2.507  -3.240  0.00  0.00    +0.050 C 
ATOM      4  C   LIG    1       -3.200  -3.159  -2.343  0.00  0.00    +0.160 C 
ATOM      5  C   LIG    1       -2.393  -3.988  -1.320  0.00  0.00    +0.050 C 
ENDROOT
BRANCH   4   6
ATOM      6  N   LIG    1       -4.074  -4.031  -3.140  0.00  0.00    -0.510 N 
ATOM      7  H   LIG    1       -4.689  -4.544  -2.526  0.00  0.00    +0.420 HD
ATOM      8  H   LIG    1       -3.509  -4.680  -3.668  0.00  0.00    +0.420 HD
BRANCH   6   9
ATOM      9  C   LIG    1       -4.872  -3.213  -4.062  0.00  0.00    +0.170 C 
ATOM     10  C   LIG    1       -4.010  -2.802  -5.257  0.00  0.00    +0.080 C 
BRANCH   9  11
ATOM     11  C   LIG    1       -6.073  -4.024  -4.554  0.00  0.00    +0.050 C 
BRANCH  11  12
ATOM     12  C   LIG    1       -7.000  -4.329  -3.376  0.00  0.00    -0.000 C 
ATOM     13  C   LIG    1       -8.201  -5.139  -3.868  0.00  0.00    +0.040 C 
ENDBRANCH  11  12
ENDBRANCH   9  11
ENDBRANCH   6   9
ENDBRANCH   4   6
BRANCH   1  14
ATOM     14  C   LIG    1       -0.714  -2.861   0.173  0.00  0.00    +0.060 C 
BRANCH  14  16
ATOM     15  C   LIG    1        0.921  -1.121   0.684  0.00  0.00    +0.020 C 
ATOM     16  C   LIG    1        0.697  -2.338   0.254  0.00  0.00    -0.060 C 
ENDBRANCH  14  16
ENDBRANCH   1  14
TORSDOF 6
ENDMDL
MODEL      419
REMARK  Name = ZINC000651666732
REMARK                            x       y       z     vdW  Elec       q    Type
REMARK                         _______ _______ _______ _____ _____    ______ ____
ROOT
ATOM      1  C   LIG    1        1.419  -1.654   1.327  0.00  0.00    +0.010 C 
ATOM      2  C   LIG    1        0.363  -2.764   1.141  0.00  0.00    +0.030 C 
ATOM      3  C   LIG    1        1.022  -4.078   1.596  0.00  0.00    +0.040 C 
ATOM      4  C   LIG    1        2.455  -3.721   2.043  0.00  0.00    +0.150 C 
ATOM      5  C   LIG    1        2.773  -2.404   1.289  0.00  0.00    +0.050 C 
ENDROOT
BRANCH   4   6
ATOM      6  N   LIG    1        3.394  -4.781   1.653  0.00  0.00    -0.500 N 
ATOM      7  H   LIG    1        4.339  -4.438   1.732  0.00  0.00    +0.430 HD
ATOM      8  H   LIG    1        3.214  -5.056   0.699  0.00  0.00    +0.420 HD
BRANCH   6   9
ATOM      9  C   LIG    1        3.218  -5.941   2.538  0.00  0.00    +0.170 C 
BRANCH   9  10
ATOM     10  C   LIG    1        1.855  -6.584   2.271  0.00  0.00    +0.050 C 
ATOM     11  C   LIG    1        1.784  -7.040   0.812  0.00  0.00    +0.040 C 
ENDBRANCH   9  10
BRANCH   9  12
ATOM     12  C   LIG    1        3.289  -5.484   3.997  0.00  0.00    +0.050 C 
ATOM     13  C   LIG    1        4.669  -4.886   4.277  0.00  0.00    +0.020 C 
ENDBRANCH   9  12
ENDBRANCH   6   9
ENDBRANCH   4   6
BRANCH   1  14
ATOM     14  C   LIG    1        1.337  -0.640   0.184  0.00  0.00    +0.060 C 
BRANCH  14  16
ATOM     15  C   LIG    1        0.065   1.439   0.335  0.00  0.00    +0.020 C 
ATOM     16  C   LIG    1        0.045   0.130   0.288  0.00  0.00    -0.060 C 
ENDBRANCH  14  16
ENDBRANCH   1  14
TORSDOF 6
ENDMDL
MODEL      420
REMARK  Name = ZINC000651668274
REMARK                            x       y       z     vdW  Elec       q    Type
REMARK                         _______ _______ _______ _____ _____    ______ ____
ROOT
ATOM      1  C   LIG    1       -1.555  -1.591  -0.989  0.00  0.00    +0.010 C 
ATOM      2  C   LIG    1       -1.651  -0.779  -2.304  0.00  0.00    +0.050 C 
ATOM      3  C   LIG    1       -2.127  -1.808  -3.350  0.00  0.00    +0.040 C 
ATOM      4  C   LIG    1       -2.845  -2.925  -2.572  0.00  0.00    +0.160 C 
ATOM      5  C   LIG    1       -2.776  -2.539  -1.078  0.00  0.00    +0.050 C 
ENDROOT
BRANCH   4   6
ATOM      6  N   LIG    1       -4.245  -3.022  -3.007  0.00  0.00    -0.510 N 
ATOM      7  H   LIG    1       -4.278  -3.153  -4.007  0.00  0.00    +0.420 HD
ATOM      8  H   LIG    1       -4.732  -2.172  -2.763  0.00  0.00    +0.420 HD
BRANCH   6   9
ATOM      9  C   LIG    1       -4.886  -4.163  -2.341  0.00  0.00    +0.160 C 
ATOM     10  C   LIG    1       -4.242  -5.464  -2.825  0.00  0.00    +0.090 C 
BRANCH   9  11
ATOM     11  C   LIG    1       -6.379  -4.177  -2.678  0.00  0.00    +0.050 C 
BRANCH  11  12
ATOM     12  C   LIG    1       -7.047  -2.935  -2.086  0.00  0.00    -0.000 C 
ATOM     13  C   LIG    1       -8.540  -2.949  -2.422  0.00  0.00    +0.030 C 
ENDBRANCH  11  12
ENDBRANCH   9  11
ENDBRANCH   6   9
ENDBRANCH   4   6
BRANCH   1  14
ATOM     14  C   LIG    1       -1.673  -0.669   0.227  0.00  0.00    +0.060 C 
BRANCH  14  16
ATOM     15  C   LIG    1       -0.564   1.502   0.367  0.00  0.00    +0.020 C 
ATOM     16  C   LIG    1       -0.443   0.198   0.320  0.00  0.00    -0.060 C 
ENDBRANCH  14  16
ENDBRANCH   1  14
TORSDOF 6
ENDMDL
MODEL      421
REMARK  Name = ZINC000651668273
REMARK                            x       y       z     vdW  Elec       q    Type
REMARK                         _______ _______ _______ _____ _____    ______ ____
ROOT
ATOM      1  C   LIG    1       -1.319  -1.741  -1.176  0.00  0.00    +0.000 C 
ATOM      2  C   LIG    1       -1.384  -0.950  -2.499  0.00  0.00    +0.050 C 
ATOM      3  C   LIG    1       -2.308  -1.801  -3.405  0.00  0.00    +0.040 C 
ATOM      4  C   LIG    1       -3.379  -2.317  -2.412  0.00  0.00    +0.160 C 
ATOM      5  C   LIG    1       -2.587  -2.611  -1.120  0.00  0.00    +0.050 C 
ENDROOT
BRANCH   4   6
ATOM      6  N   LIG    1       -4.005  -3.544  -2.923  0.00  0.00    -0.500 N 
ATOM      7  H   LIG    1       -4.621  -3.925  -2.221  0.00  0.00    +0.430 HD
ATOM      8  H   LIG    1       -3.290  -4.220  -3.146  0.00  0.00    +0.420 HD
BRANCH   6   9
ATOM      9  C   LIG    1       -4.777  -3.232  -4.134  0.00  0.00    +0.160 C 
ATOM     10  C   LIG    1       -5.939  -2.304  -3.773  0.00  0.00    +0.090 C 
BRANCH   9  11
ATOM     11  C   LIG    1       -5.327  -4.526  -4.736  0.00  0.00    +0.050 C 
BRANCH  11  12
ATOM     12  C   LIG    1       -4.165  -5.401  -5.211  0.00  0.00    -0.000 C 
ATOM     13  C   LIG    1       -4.714  -6.696  -5.814  0.00  0.00    +0.030 C 
ENDBRANCH  11  12
ENDBRANCH   9  11
ENDBRANCH   6   9
ENDBRANCH   4   6
BRANCH   1  14
ATOM     14  C   LIG    1       -1.293  -0.775   0.010  0.00  0.00    +0.060 C 
BRANCH  14  16
ATOM     15  C   LIG    1       -0.016   1.306   0.009  0.00  0.00    +0.020 C 
ATOM     16  C   LIG    1        0.002  -0.004   0.002  0.00  0.00    -0.060 C 
ENDBRANCH  14  16
ENDBRANCH   1  14
TORSDOF 6
ENDMDL
MODEL      422
REMARK  Name = ZINC000651666730
REMARK                            x       y       z     vdW  Elec       q    Type
REMARK                         _______ _______ _______ _____ _____    ______ ____
ROOT
ATOM      1  C   LIG    1        2.094  -1.770   0.591  0.00  0.00    +0.000 C 
ATOM      2  C   LIG    1        0.935  -2.771   0.362  0.00  0.00    +0.050 C 
ATOM      3  C   LIG    1        1.181  -3.836   1.459  0.00  0.00    +0.040 C 
ATOM      4  C   LIG    1        2.717  -3.976   1.512  0.00  0.00    +0.160 C 
ATOM      5  C   LIG    1        3.299  -2.660   0.962  0.00  0.00    +0.040 C 
ENDROOT
BRANCH   4   6
ATOM      6  N   LIG    1        3.156  -4.178   2.899  0.00  0.00    -0.510 N 
ATOM      7  H   LIG    1        2.670  -3.532   3.503  0.00  0.00    +0.420 HD
ATOM      8  H   LIG    1        4.150  -4.016   2.964  0.00  0.00    +0.430 HD
BRANCH   6   9
ATOM      9  C   LIG    1        2.857  -5.555   3.313  0.00  0.00    +0.170 C 
BRANCH   9  10
ATOM     10  C   LIG    1        3.443  -6.533   2.292  0.00  0.00    +0.050 C 
ATOM     11  C   LIG    1        4.970  -6.429   2.305  0.00  0.00    +0.030 C 
ENDBRANCH   9  10
BRANCH   9  12
ATOM     12  C   LIG    1        1.341  -5.747   3.389  0.00  0.00    +0.050 C 
ATOM     13  C   LIG    1        0.754  -4.771   4.411  0.00  0.00    +0.040 C 
ENDBRANCH   9  12
ENDBRANCH   6   9
ENDBRANCH   4   6
BRANCH   1  14
ATOM     14  C   LIG    1        2.384  -0.984  -0.690  0.00  0.00    +0.060 C 
BRANCH  14  16
ATOM     15  C   LIG    1        1.432   1.217  -1.148  0.00  0.00    +0.020 C 
ATOM     16  C   LIG    1        1.226  -0.067  -0.988  0.00  0.00    -0.060 C 
ENDBRANCH  14  16
ENDBRANCH   1  14
TORSDOF 6
ENDMDL
MODEL      423
REMARK  Name = ZINC000651668275
REMARK                            x       y       z     vdW  Elec       q    Type
REMARK                         _______ _______ _______ _____ _____    ______ ____
ROOT
ATOM      1  C   LIG    1       -1.319  -1.741  -1.176  0.00  0.00    +0.010 C 
ATOM      2  C   LIG    1       -1.431  -0.965  -2.513  0.00  0.00    +0.050 C 
ATOM      3  C   LIG    1       -2.046  -1.986  -3.492  0.00  0.00    +0.040 C 
ATOM      4  C   LIG    1       -2.798  -3.019  -2.635  0.00  0.00    +0.160 C 
ATOM      5  C   LIG    1       -2.611  -2.594  -1.162  0.00  0.00    +0.050 C 
ENDROOT
BRANCH   4   6
ATOM      6  N   LIG    1       -4.225  -3.020  -2.985  0.00  0.00    -0.510 N 
ATOM      7  H   LIG    1       -4.588  -2.081  -2.918  0.00  0.00    +0.420 HD
ATOM      8  H   LIG    1       -4.727  -3.621  -2.348  0.00  0.00    +0.430 HD
BRANCH   6   9
ATOM      9  C   LIG    1       -4.392  -3.513  -4.358  0.00  0.00    +0.160 C 
ATOM     10  C   LIG    1       -3.957  -4.978  -4.430  0.00  0.00    +0.090 C 
BRANCH   9  11
ATOM     11  C   LIG    1       -5.862  -3.397  -4.766  0.00  0.00    +0.050 C 
BRANCH  11  12
ATOM     12  C   LIG    1       -6.263  -1.922  -4.815  0.00  0.00    -0.000 C 
ATOM     13  C   LIG    1       -7.733  -1.806  -5.223  0.00  0.00    +0.030 C 
ENDBRANCH  11  12
ENDBRANCH   9  11
ENDBRANCH   6   9
ENDBRANCH   4   6
BRANCH   1  14
ATOM     14  C   LIG    1       -1.293  -0.775   0.010  0.00  0.00    +0.060 C 
BRANCH  14  16
ATOM     15  C   LIG    1       -0.016   1.306   0.009  0.00  0.00    +0.020 C 
ATOM     16  C   LIG    1        0.002  -0.004   0.002  0.00  0.00    -0.060 C 
ENDBRANCH  14  16
ENDBRANCH   1  14
TORSDOF 6
ENDMDL
MODEL      424
REMARK  Name = ZINC000121962412
REMARK                            x       y       z     vdW  Elec       q    Type
REMARK                         _______ _______ _______ _____ _____    ______ ____
ROOT
ATOM      1  N   LIG    1       -4.243  -6.121   0.010  0.00  0.00    -0.510 N 
ATOM      2  H   LIG    1       -3.755  -6.456   0.827  0.00  0.00    +0.430 HD
ATOM      3  H   LIG    1       -3.770  -6.447  -0.821  0.00  0.00    +0.430 HD
ENDROOT
BRANCH   1   4
ATOM      4  C   LIG    1       -5.621  -6.630   0.020  0.00  0.00    +0.170 C 
ATOM      5  C   LIG    1       -6.325  -6.307  -1.314  0.00  0.00    +0.040 C 
ATOM      6  C   LIG    1       -7.209  -7.521  -1.649  0.00  0.00    +0.030 C 
ATOM      7  C   LIG    1       -7.010  -8.540  -0.508  0.00  0.00    +0.000 C 
ATOM      8  C   LIG    1       -7.001  -9.967  -1.059  0.00  0.00    +0.040 C 
ATOM      9  C   LIG    1       -5.627  -8.177   0.092  0.00  0.00    +0.050 C 
ENDBRANCH   1   4
BRANCH   1  10
ATOM     10  C   LIG    1       -4.263  -4.652   0.018  0.00  0.00    +0.250 C 
BRANCH  10  11
ATOM     11  C   LIG    1       -2.827  -4.123   0.007  0.00  0.00    +0.030 C 
BRANCH  11  12
ATOM     12  C   LIG    1       -2.848  -2.593   0.015  0.00  0.00    +0.020 C 
BRANCH  12  13
ATOM     13  C   LIG    1       -1.413  -2.063   0.004  0.00  0.00    +0.020 C 
BRANCH  13  14
ATOM     14  C   LIG    1       -1.433  -0.534   0.013  0.00  0.00    +0.000 C 
BRANCH  14  16
ATOM     15  C   LIG    1       -0.019   1.526   0.010  0.00  0.00    +0.000 C 
ATOM     16  C   LIG    1        0.002  -0.004   0.002  0.00  0.00    -0.010 C 
ENDBRANCH  14  16
ENDBRANCH  13  14
ENDBRANCH  12  13
ENDBRANCH  11  12
ENDBRANCH  10  11
ENDBRANCH   1  10
TORSDOF 7
ENDMDL
MODEL      425
REMARK  Name = ZINC000121962024
REMARK                            x       y       z     vdW  Elec       q    Type
REMARK                         _______ _______ _______ _____ _____    ______ ____
ROOT
ATOM      1  N   LIG    1       -4.243  -6.121   0.010  0.00  0.00    -0.510 N 
ATOM      2  H   LIG    1       -3.755  -6.456   0.827  0.00  0.00    +0.430 HD
ATOM      3  H   LIG    1       -3.770  -6.447  -0.821  0.00  0.00    +0.430 HD
ENDROOT
BRANCH   1   4
ATOM      4  C   LIG    1       -5.621  -6.630   0.020  0.00  0.00    +0.160 C 
ATOM      5  C   LIG    1       -6.328  -6.306  -1.319  0.00  0.00    +0.040 C 
ATOM      6  C   LIG    1       -7.446  -7.376  -1.383  0.00  0.00    +0.050 C 
ATOM      7  C   LIG    1       -6.788  -8.645  -0.804  0.00  0.00    +0.000 C 
ATOM      8  C   LIG    1       -7.804  -9.430   0.029  0.00  0.00    +0.040 C 
ATOM      9  C   LIG    1       -5.627  -8.171   0.092  0.00  0.00    +0.050 C 
ENDBRANCH   1   4
BRANCH   1  10
ATOM     10  C   LIG    1       -4.263  -4.652   0.018  0.00  0.00    +0.250 C 
BRANCH  10  11
ATOM     11  C   LIG    1       -2.827  -4.123   0.007  0.00  0.00    +0.030 C 
BRANCH  11  12
ATOM     12  C   LIG    1       -2.848  -2.593   0.015  0.00  0.00    +0.020 C 
BRANCH  12  13
ATOM     13  C   LIG    1       -1.413  -2.063   0.004  0.00  0.00    +0.020 C 
BRANCH  13  14
ATOM     14  C   LIG    1       -1.433  -0.534   0.013  0.00  0.00    +0.000 C 
BRANCH  14  16
ATOM     15  C   LIG    1       -0.019   1.526   0.010  0.00  0.00    +0.000 C 
ATOM     16  C   LIG    1        0.002  -0.004   0.002  0.00  0.00    -0.010 C 
ENDBRANCH  14  16
ENDBRANCH  13  14
ENDBRANCH  12  13
ENDBRANCH  11  12
ENDBRANCH  10  11
ENDBRANCH   1  10
TORSDOF 7
ENDMDL
MODEL      426
REMARK  Name = ZINC000651713078
REMARK                            x       y       z     vdW  Elec       q    Type
REMARK                         _______ _______ _______ _____ _____    ______ ____
ROOT
ATOM      1  N   LIG    1       -0.264  -2.750  -1.010  0.00  0.00    -0.510 N 
ATOM      2  H   LIG    1       -0.466  -3.317  -0.200  0.00  0.00    +0.420 HD
ATOM      3  H   LIG    1        0.625  -2.290  -0.885  0.00  0.00    +0.420 HD
ENDROOT
BRANCH   1   4
ATOM      4  C   LIG    1       -0.210  -3.603  -2.204  0.00  0.00    +0.170 C 
ATOM      5  C   LIG    1        0.271  -2.783  -3.419  0.00  0.00    +0.050 C 
ATOM      6  C   LIG    1        1.158  -3.771  -4.217  0.00  0.00    +0.050 C 
ATOM      7  C   LIG    1        1.886  -4.556  -3.098  0.00  0.00    +0.050 C 
ATOM      8  C   LIG    1        0.816  -4.732  -2.000  0.00  0.00    -0.080 C 
ATOM      9  C   LIG    1        0.135  -6.094  -2.144  0.00  0.00    +0.060 C 
BRANCH   8  10
ATOM     10  C   LIG    1        1.459  -4.611  -0.617  0.00  0.00    -0.010 C 
ATOM     11  C   LIG    1        2.502  -5.716  -0.441  0.00  0.00    +0.050 C 
ENDBRANCH   8  10
ENDBRANCH   1   4
BRANCH   1  12
ATOM     12  C   LIG    1       -1.319  -1.741  -1.176  0.00  0.00    +0.170 C 
ATOM     13  C   LIG    1       -2.682  -2.433  -1.241  0.00  0.00    +0.090 C 
BRANCH  12  14
ATOM     14  C   LIG    1       -1.293  -0.775   0.010  0.00  0.00    +0.090 C 
BRANCH  14  16
ATOM     15  C   LIG    1       -0.016   1.306   0.009  0.00  0.00    +0.090 C 
ATOM     16  C   LIG    1        0.002  -0.004   0.002  0.00  0.00    -0.110 C 
ENDBRANCH  14  16
ENDBRANCH  12  14
ENDBRANCH   1  12
TORSDOF 5
ENDMDL
MODEL      427
REMARK  Name = ZINC000121961828
REMARK                            x       y       z     vdW  Elec       q    Type
REMARK                         _______ _______ _______ _____ _____    ______ ____
ROOT
ATOM      1  N   LIG    1       -4.243  -6.121   0.010  0.00  0.00    -0.500 N 
ATOM      2  H   LIG    1       -3.755  -6.456   0.827  0.00  0.00    +0.430 HD
ATOM      3  H   LIG    1       -3.770  -6.447  -0.821  0.00  0.00    +0.430 HD
ENDROOT
BRANCH   1   4
ATOM      4  C   LIG    1       -5.621  -6.630   0.020  0.00  0.00    +0.160 C 
ATOM      5  C   LIG    1       -6.303  -6.339   1.380  0.00  0.00    +0.040 C 
ATOM      6  C   LIG    1       -7.418  -7.400   1.479  0.00  0.00    +0.050 C 
ATOM      7  C   LIG    1       -6.994  -8.569   0.573  0.00  0.00    +0.000 C 
ATOM      8  C   LIG    1       -6.845  -9.847   1.401  0.00  0.00    +0.040 C 
ATOM      9  C   LIG    1       -5.636  -8.177  -0.050  0.00  0.00    +0.050 C 
ENDBRANCH   1   4
BRANCH   1  10
ATOM     10  C   LIG    1       -4.263  -4.652   0.018  0.00  0.00    +0.250 C 
BRANCH  10  11
ATOM     11  C   LIG    1       -2.827  -4.123   0.007  0.00  0.00    +0.030 C 
BRANCH  11  12
ATOM     12  C   LIG    1       -2.848  -2.593   0.015  0.00  0.00    +0.020 C 
BRANCH  12  13
ATOM     13  C   LIG    1       -1.413  -2.063   0.004  0.00  0.00    +0.020 C 
BRANCH  13  14
ATOM     14  C   LIG    1       -1.433  -0.534   0.013  0.00  0.00    +0.000 C 
BRANCH  14  16
ATOM     15  C   LIG    1       -0.019   1.526   0.010  0.00  0.00    +0.000 C 
ATOM     16  C   LIG    1        0.002  -0.004   0.002  0.00  0.00    -0.010 C 
ENDBRANCH  14  16
ENDBRANCH  13  14
ENDBRANCH  12  13
ENDBRANCH  11  12
ENDBRANCH  10  11
ENDBRANCH   1  10
TORSDOF 7
ENDMDL
MODEL      428
REMARK  Name = ZINC000121962220
REMARK                            x       y       z     vdW  Elec       q    Type
REMARK                         _______ _______ _______ _____ _____    ______ ____
ROOT
ATOM      1  N   LIG    1       -4.243  -6.121   0.010  0.00  0.00    -0.510 N 
ATOM      2  H   LIG    1       -3.755  -6.456   0.827  0.00  0.00    +0.430 HD
ATOM      3  H   LIG    1       -3.770  -6.447  -0.821  0.00  0.00    +0.430 HD
ENDROOT
BRANCH   1   4
ATOM      4  C   LIG    1       -5.621  -6.630   0.020  0.00  0.00    +0.160 C 
ATOM      5  C   LIG    1       -6.299  -6.291   1.363  0.00  0.00    +0.050 C 
ATOM      6  C   LIG    1       -7.178  -7.529   1.669  0.00  0.00    +0.050 C 
ATOM      7  C   LIG    1       -6.294  -8.704   1.182  0.00  0.00    -0.010 C 
ATOM      8  C   LIG    1       -7.157  -9.925   0.859  0.00  0.00    +0.040 C 
ATOM      9  C   LIG    1       -5.617  -8.164  -0.097  0.00  0.00    +0.050 C 
ENDBRANCH   1   4
BRANCH   1  10
ATOM     10  C   LIG    1       -4.263  -4.652   0.018  0.00  0.00    +0.250 C 
BRANCH  10  11
ATOM     11  C   LIG    1       -2.827  -4.123   0.007  0.00  0.00    +0.030 C 
BRANCH  11  12
ATOM     12  C   LIG    1       -2.848  -2.593   0.015  0.00  0.00    +0.020 C 
BRANCH  12  13
ATOM     13  C   LIG    1       -1.413  -2.063   0.004  0.00  0.00    +0.020 C 
BRANCH  13  14
ATOM     14  C   LIG    1       -1.433  -0.534   0.013  0.00  0.00    +0.000 C 
BRANCH  14  16
ATOM     15  C   LIG    1       -0.019   1.526   0.010  0.00  0.00    +0.000 C 
ATOM     16  C   LIG    1        0.002  -0.004   0.002  0.00  0.00    -0.010 C 
ENDBRANCH  14  16
ENDBRANCH  13  14
ENDBRANCH  12  13
ENDBRANCH  11  12
ENDBRANCH  10  11
ENDBRANCH   1  10
TORSDOF 7
ENDMDL
MODEL      429
REMARK  Name = ZINC000651713080
REMARK                            x       y       z     vdW  Elec       q    Type
REMARK                         _______ _______ _______ _____ _____    ______ ____
ROOT
ATOM      1  N   LIG    1       -0.216  -2.616  -0.696  0.00  0.00    -0.510 N 
ATOM      2  H   LIG    1       -0.629  -3.060   0.110  0.00  0.00    +0.420 HD
ATOM      3  H   LIG    1        0.636  -2.148  -0.422  0.00  0.00    +0.420 HD
ENDROOT
BRANCH   1   4
ATOM      4  C   LIG    1        0.089  -3.631  -1.713  0.00  0.00    +0.170 C 
ATOM      5  C   LIG    1       -1.141  -4.534  -1.943  0.00  0.00    +0.050 C 
ATOM      6  C   LIG    1       -0.540  -5.944  -2.168  0.00  0.00    +0.040 C 
ATOM      7  C   LIG    1        0.640  -5.977  -1.166  0.00  0.00    +0.050 C 
ATOM      8  C   LIG    1        1.222  -4.548  -1.220  0.00  0.00    -0.080 C 
ATOM      9  C   LIG    1        1.677  -4.114   0.175  0.00  0.00    +0.040 C 
BRANCH   8  10
ATOM     10  C   LIG    1        2.400  -4.498  -2.195  0.00  0.00    +0.030 C 
ATOM     11  C   LIG    1        3.504  -5.440  -1.710  0.00  0.00    +0.030 C 
ENDBRANCH   8  10
ENDBRANCH   1   4
BRANCH   1  12
ATOM     12  C   LIG    1       -1.157  -1.634  -1.251  0.00  0.00    +0.170 C 
ATOM     13  C   LIG    1       -2.515  -2.302  -1.478  0.00  0.00    +0.090 C 
BRANCH  12  14
ATOM     14  C   LIG    1       -1.319  -0.471  -0.269  0.00  0.00    +0.090 C 
BRANCH  14  16
ATOM     15  C   LIG    1        0.044   1.552  -0.362  0.00  0.00    +0.090 C 
ATOM     16  C   LIG    1       -0.009   0.262  -0.140  0.00  0.00    -0.110 C 
ENDBRANCH  14  16
ENDBRANCH  12  14
ENDBRANCH   1  12
TORSDOF 5
ENDMDL
MODEL      430
REMARK  Name = ZINC000651713079
REMARK                            x       y       z     vdW  Elec       q    Type
REMARK                         _______ _______ _______ _____ _____    ______ ____
ROOT
ATOM      1  N   LIG    1       -0.216  -2.616  -0.696  0.00  0.00    -0.510 N 
ATOM      2  H   LIG    1       -0.629  -3.060   0.110  0.00  0.00    +0.420 HD
ATOM      3  H   LIG    1        0.636  -2.148  -0.422  0.00  0.00    +0.420 HD
ENDROOT
BRANCH   1   4
ATOM      4  C   LIG    1        0.089  -3.631  -1.713  0.00  0.00    +0.170 C 
ATOM      5  C   LIG    1       -1.141  -4.534  -1.943  0.00  0.00    +0.050 C 
ATOM      6  C   LIG    1       -0.540  -5.944  -2.168  0.00  0.00    +0.040 C 
ATOM      7  C   LIG    1        0.640  -5.977  -1.166  0.00  0.00    +0.050 C 
ATOM      8  C   LIG    1        1.222  -4.548  -1.220  0.00  0.00    -0.080 C 
ATOM      9  C   LIG    1        2.400  -4.498  -2.195  0.00  0.00    +0.060 C 
BRANCH   8  10
ATOM     10  C   LIG    1        1.677  -4.114   0.175  0.00  0.00    +0.000 C 
ATOM     11  C   LIG    1        2.778  -5.055   0.668  0.00  0.00    +0.050 C 
ENDBRANCH   8  10
ENDBRANCH   1   4
BRANCH   1  12
ATOM     12  C   LIG    1       -1.157  -1.634  -1.251  0.00  0.00    +0.170 C 
ATOM     13  C   LIG    1       -2.515  -2.302  -1.478  0.00  0.00    +0.090 C 
BRANCH  12  14
ATOM     14  C   LIG    1       -1.319  -0.471  -0.269  0.00  0.00    +0.090 C 
BRANCH  14  16
ATOM     15  C   LIG    1        0.044   1.552  -0.362  0.00  0.00    +0.090 C 
ATOM     16  C   LIG    1       -0.009   0.262  -0.140  0.00  0.00    -0.110 C 
ENDBRANCH  14  16
ENDBRANCH  12  14
ENDBRANCH   1  12
TORSDOF 5
ENDMDL
MODEL      431
REMARK  Name = ZINC000651713077
REMARK                            x       y       z     vdW  Elec       q    Type
REMARK                         _______ _______ _______ _____ _____    ______ ____
ROOT
ATOM      1  N   LIG    1       -0.264  -2.750  -1.010  0.00  0.00    -0.500 N 
ATOM      2  H   LIG    1       -0.466  -3.317  -0.200  0.00  0.00    +0.420 HD
ATOM      3  H   LIG    1        0.625  -2.290  -0.885  0.00  0.00    +0.420 HD
ENDROOT
BRANCH   1   4
ATOM      4  C   LIG    1       -0.210  -3.603  -2.204  0.00  0.00    +0.160 C 
ATOM      5  C   LIG    1        0.271  -2.783  -3.419  0.00  0.00    +0.060 C 
ATOM      6  C   LIG    1        1.793  -3.059  -3.485  0.00  0.00    +0.030 C 
ATOM      7  C   LIG    1        1.886  -4.556  -3.098  0.00  0.00    +0.060 C 
ATOM      8  C   LIG    1        0.816  -4.732  -2.000  0.00  0.00    -0.080 C 
ATOM      9  C   LIG    1        1.459  -4.611  -0.617  0.00  0.00    +0.040 C 
BRANCH   8  10
ATOM     10  C   LIG    1        0.135  -6.094  -2.144  0.00  0.00    +0.030 C 
ATOM     11  C   LIG    1        1.174  -7.204  -1.974  0.00  0.00    +0.030 C 
ENDBRANCH   8  10
ENDBRANCH   1   4
BRANCH   1  12
ATOM     12  C   LIG    1       -1.319  -1.741  -1.176  0.00  0.00    +0.160 C 
ATOM     13  C   LIG    1       -2.682  -2.433  -1.241  0.00  0.00    +0.090 C 
BRANCH  12  14
ATOM     14  C   LIG    1       -1.293  -0.775   0.010  0.00  0.00    +0.090 C 
BRANCH  14  16
ATOM     15  C   LIG    1       -0.016   1.306   0.009  0.00  0.00    +0.090 C 
ATOM     16  C   LIG    1        0.002  -0.004   0.002  0.00  0.00    -0.110 C 
ENDBRANCH  14  16
ENDBRANCH  12  14
ENDBRANCH   1  12
TORSDOF 5
ENDMDL
MODEL      432
REMARK  Name = ZINC000389320928
REMARK                            x       y       z     vdW  Elec       q    Type
REMARK                         _______ _______ _______ _____ _____    ______ ____
ROOT
ATOM      1  N   LIG    1        2.783  -3.301  -0.060  0.00  0.00    -0.510 N 
ATOM      2  H   LIG    1        2.631  -2.729  -0.877  0.00  0.00    +0.420 HD
ATOM      3  H   LIG    1        2.075  -4.019  -0.017  0.00  0.00    +0.420 HD
ENDROOT
BRANCH   1   4
ATOM      4  C   LIG    1        2.705  -2.464   1.145  0.00  0.00    +0.160 C 
ATOM      5  C   LIG    1        2.810  -3.349   2.388  0.00  0.00    +0.090 C 
BRANCH   4   6
ATOM      6  C   LIG    1        1.370  -1.717   1.161  0.00  0.00    +0.060 C 
BRANCH   6   7
ATOM      7  C   LIG    1        1.317  -0.740  -0.015  0.00  0.00    +0.040 C 
BRANCH   7   9
ATOM      8  C   LIG    1       -0.016   1.306   0.009  0.00  0.00    +0.050 C 
ATOM      9  C   LIG    1        0.002  -0.004   0.002  0.00  0.00    -0.070 C 
ENDBRANCH   7   9
ENDBRANCH   6   7
ENDBRANCH   4   6
ENDBRANCH   1   4
BRANCH   1  10
ATOM     10  C   LIG    1        4.110  -3.925  -0.138  0.00  0.00    +0.160 C 
ATOM     11  C   LIG    1        5.173  -2.841  -0.329  0.00  0.00    +0.090 C 
BRANCH  10  12
ATOM     12  C   LIG    1        4.150  -4.893  -1.322  0.00  0.00    +0.060 C 
BRANCH  12  13
ATOM     13  C   LIG    1        3.176  -6.045  -1.073  0.00  0.00    +0.040 C 
BRANCH  13  14
ATOM     14  C   LIG    1        3.216  -7.013  -2.257  0.00  0.00    -0.060 C 
ATOM     15  C   LIG    1        3.706  -8.437  -1.989  0.00  0.00    +0.030 C 
ATOM     16  C   LIG    1        2.222  -8.176  -2.253  0.00  0.00    +0.020 C 
ENDBRANCH  13  14
ENDBRANCH  12  13
ENDBRANCH  10  12
ENDBRANCH   1  10
TORSDOF 8
ENDMDL
MODEL      433
REMARK  Name = ZINC000389320925
REMARK                            x       y       z     vdW  Elec       q    Type
REMARK                         _______ _______ _______ _____ _____    ______ ____
ROOT
ATOM      1  N   LIG    1        2.896  -3.282  -0.197  0.00  0.00    -0.510 N 
ATOM      2  H   LIG    1        2.758  -2.666  -0.984  0.00  0.00    +0.420 HD
ATOM      3  H   LIG    1        2.249  -4.054  -0.256  0.00  0.00    +0.430 HD
ENDROOT
BRANCH   1   4
ATOM      4  C   LIG    1        2.664  -2.542   1.050  0.00  0.00    +0.160 C 
ATOM      5  C   LIG    1        1.189  -2.654   1.442  0.00  0.00    +0.090 C 
BRANCH   4   6
ATOM      6  C   LIG    1        3.026  -1.070   0.846  0.00  0.00    +0.060 C 
BRANCH   6   7
ATOM      7  C   LIG    1        4.520  -0.951   0.535  0.00  0.00    +0.040 C 
BRANCH   7   9
ATOM      8  C   LIG    1        5.874   0.966   1.208  0.00  0.00    +0.050 C 
ATOM      9  C   LIG    1        4.903   0.505   0.460  0.00  0.00    -0.060 C 
ENDBRANCH   7   9
ENDBRANCH   6   7
ENDBRANCH   4   6
ENDBRANCH   1   4
BRANCH   1  10
ATOM     10  C   LIG    1        4.273  -3.795  -0.213  0.00  0.00    +0.160 C 
ATOM     11  C   LIG    1        4.434  -4.856   0.877  0.00  0.00    +0.090 C 
BRANCH  10  12
ATOM     12  C   LIG    1        4.570  -4.417  -1.579  0.00  0.00    +0.060 C 
BRANCH  12  13
ATOM     13  C   LIG    1        4.530  -3.329  -2.655  0.00  0.00    +0.040 C 
BRANCH  13  14
ATOM     14  C   LIG    1        4.827  -3.951  -4.020  0.00  0.00    -0.050 C 
ATOM     15  C   LIG    1        3.719  -3.903  -5.074  0.00  0.00    +0.010 C 
ATOM     16  C   LIG    1        4.950  -3.005  -5.216  0.00  0.00    +0.030 C 
ENDBRANCH  13  14
ENDBRANCH  12  13
ENDBRANCH  10  12
ENDBRANCH   1  10
TORSDOF 8
ENDMDL
MODEL      434
REMARK  Name = ZINC000389320926
REMARK                            x       y       z     vdW  Elec       q    Type
REMARK                         _______ _______ _______ _____ _____    ______ ____
ROOT
ATOM      1  N   LIG    1        3.681  -1.461   1.581  0.00  0.00    -0.510 N 
ATOM      2  H   LIG    1        3.003  -2.169   1.822  0.00  0.00    +0.420 HD
ATOM      3  H   LIG    1        3.737  -0.782   2.325  0.00  0.00    +0.420 HD
ENDROOT
BRANCH   1   4
ATOM      4  C   LIG    1        3.270  -0.794   0.338  0.00  0.00    +0.150 C 
ATOM      5  C   LIG    1        3.024  -1.844  -0.747  0.00  0.00    +0.090 C 
BRANCH   4   6
ATOM      6  C   LIG    1        1.984  -0.003   0.585  0.00  0.00    +0.060 C 
BRANCH   6   7
ATOM      7  C   LIG    1        2.262   1.127   1.578  0.00  0.00    +0.050 C 
BRANCH   7   9
ATOM      8  C   LIG    1        0.549   2.067   3.042  0.00  0.00    +0.040 C 
ATOM      9  C   LIG    1        0.994   1.905   1.821  0.00  0.00    -0.050 C 
ENDBRANCH   7   9
ENDBRANCH   6   7
ENDBRANCH   4   6
ENDBRANCH   1   4
BRANCH   1  10
ATOM     10  C   LIG    1        4.995  -2.087   1.389  0.00  0.00    +0.160 C 
ATOM     11  C   LIG    1        5.125  -3.296   2.319  0.00  0.00    +0.090 C 
BRANCH  10  12
ATOM     12  C   LIG    1        6.095  -1.074   1.713  0.00  0.00    +0.070 C 
BRANCH  12  13
ATOM     13  C   LIG    1        6.059   0.063   0.690  0.00  0.00    +0.040 C 
BRANCH  13  14
ATOM     14  C   LIG    1        7.208   1.034   0.966  0.00  0.00    -0.060 C 
ATOM     15  C   LIG    1        8.284   1.180  -0.113  0.00  0.00    +0.030 C 
ATOM     16  C   LIG    1        7.276   2.307   0.120  0.00  0.00    +0.020 C 
ENDBRANCH  13  14
ENDBRANCH  12  13
ENDBRANCH  10  12
ENDBRANCH   1  10
TORSDOF 8
ENDMDL
MODEL      435
REMARK  Name = ZINC000389320927
REMARK                            x       y       z     vdW  Elec       q    Type
REMARK                         _______ _______ _______ _____ _____    ______ ____
ROOT
ATOM      1  N   LIG    1        3.800  -1.514   1.380  0.00  0.00    -0.510 N 
ATOM      2  H   LIG    1        3.720  -1.132   2.310  0.00  0.00    +0.420 HD
ATOM      3  H   LIG    1        3.749  -0.767   0.704  0.00  0.00    +0.420 HD
ENDROOT
BRANCH   1   4
ATOM      4  C   LIG    1        2.705  -2.464   1.145  0.00  0.00    +0.160 C 
ATOM      5  C   LIG    1        2.708  -3.528   2.244  0.00  0.00    +0.090 C 
BRANCH   4   6
ATOM      6  C   LIG    1        1.370  -1.717   1.161  0.00  0.00    +0.060 C 
BRANCH   6   7
ATOM      7  C   LIG    1        1.317  -0.740  -0.015  0.00  0.00    +0.050 C 
BRANCH   7   9
ATOM      8  C   LIG    1       -0.016   1.306   0.009  0.00  0.00    +0.040 C 
ATOM      9  C   LIG    1        0.002  -0.004   0.002  0.00  0.00    -0.050 C 
ENDBRANCH   7   9
ENDBRANCH   6   7
ENDBRANCH   4   6
ENDBRANCH   1   4
BRANCH   1  10
ATOM     10  C   LIG    1        5.088  -2.208   1.245  0.00  0.00    +0.160 C 
ATOM     11  C   LIG    1        5.264  -2.680  -0.200  0.00  0.00    +0.090 C 
BRANCH  10  12
ATOM     12  C   LIG    1        6.224  -1.251   1.612  0.00  0.00    +0.060 C 
BRANCH  12  13
ATOM     13  C   LIG    1        6.119  -0.877   3.091  0.00  0.00    +0.040 C 
BRANCH  13  14
ATOM     14  C   LIG    1        7.255   0.080   3.458  0.00  0.00    -0.050 C 
ATOM     15  C   LIG    1        6.872   1.492   3.905  0.00  0.00    +0.010 C 
ATOM     16  C   LIG    1        7.394   0.481   4.928  0.00  0.00    +0.030 C 
ENDBRANCH  13  14
ENDBRANCH  12  13
ENDBRANCH  10  12
ENDBRANCH   1  10
TORSDOF 8
ENDMDL
MODEL      436
REMARK  Name = ZINC000652042494
REMARK                            x       y       z     vdW  Elec       q    Type
REMARK                         _______ _______ _______ _____ _____    ______ ____
ROOT
ATOM      1  N   LIG    1        2.801  -3.311   2.347  0.00  0.00    -0.510 N 
ATOM      2  H   LIG    1        2.044  -3.974   2.268  0.00  0.00    +0.420 HD
ATOM      3  H   LIG    1        2.712  -2.801   3.213  0.00  0.00    +0.420 HD
ENDROOT
BRANCH   1   4
ATOM      4  C   LIG    1        2.751  -2.373   1.218  0.00  0.00    +0.160 C 
ATOM      5  C   LIG    1        3.820  -1.294   1.403  0.00  0.00    +0.080 C 
BRANCH   4   6
ATOM      6  C   LIG    1        1.370  -1.717   1.161  0.00  0.00    -0.010 C 
ATOM      7  C   LIG    1        0.300  -2.796   0.976  0.00  0.00    +0.040 C 
BRANCH   6   8
ATOM      8  C   LIG    1        1.317  -0.740  -0.015  0.00  0.00    +0.070 C 
BRANCH   8  10
ATOM      9  C   LIG    1       -0.016   1.306   0.009  0.00  0.00    +0.030 C 
ATOM     10  C   LIG    1        0.002  -0.004   0.002  0.00  0.00    -0.070 C 
ENDBRANCH   8  10
ENDBRANCH   6   8
ENDBRANCH   4   6
ENDBRANCH   1   4
BRANCH   1  11
ATOM     11  C   LIG    1        4.083  -4.028   2.331  0.00  0.00    +0.170 C 
ATOM     12  C   LIG    1        4.164  -4.900   1.077  0.00  0.00    +0.080 C 
BRANCH  11  13
ATOM     13  C   LIG    1        4.188  -4.914   3.575  0.00  0.00    -0.080 C 
ATOM     14  C   LIG    1        4.107  -4.042   4.830  0.00  0.00    +0.040 C 
ATOM     15  C   LIG    1        5.523  -5.660   3.558  0.00  0.00    +0.070 C 
ATOM     16  C   LIG    1        3.039  -5.923   3.580  0.00  0.00    +0.050 C 
ENDBRANCH  11  13
ENDBRANCH   1  11
TORSDOF 6
ENDMDL
MODEL      437
REMARK  Name = ZINC000652042493
REMARK                            x       y       z     vdW  Elec       q    Type
REMARK                         _______ _______ _______ _____ _____    ______ ____
ROOT
ATOM      1  N   LIG    1        2.764  -3.347   2.313  0.00  0.00    -0.510 N 
ATOM      2  H   LIG    1        2.221  -4.147   2.026  0.00  0.00    +0.420 HD
ATOM      3  H   LIG    1        2.378  -2.966   3.164  0.00  0.00    +0.420 HD
ENDROOT
BRANCH   1   4
ATOM      4  C   LIG    1        2.726  -2.325   1.258  0.00  0.00    +0.160 C 
ATOM      5  C   LIG    1        1.271  -2.008   0.908  0.00  0.00    +0.080 C 
BRANCH   4   6
ATOM      6  C   LIG    1        3.421  -1.055   1.753  0.00  0.00    -0.010 C 
ATOM      7  C   LIG    1        2.699  -0.531   2.996  0.00  0.00    +0.050 C 
BRANCH   6   8
ATOM      8  C   LIG    1        3.381   0.009   0.654  0.00  0.00    +0.090 C 
BRANCH   8  10
ATOM      9  C   LIG    1        5.141   1.672   0.343  0.00  0.00    +0.030 C 
ATOM     10  C   LIG    1        4.170   1.215   1.094  0.00  0.00    -0.070 C 
ENDBRANCH   8  10
ENDBRANCH   6   8
ENDBRANCH   4   6
ENDBRANCH   1   4
BRANCH   1  11
ATOM     11  C   LIG    1        4.155  -3.757   2.548  0.00  0.00    +0.170 C 
ATOM     12  C   LIG    1        4.696  -4.462   1.302  0.00  0.00    +0.090 C 
BRANCH  11  13
ATOM     13  C   LIG    1        4.210  -4.714   3.740  0.00  0.00    -0.080 C 
ATOM     14  C   LIG    1        3.670  -4.010   4.986  0.00  0.00    +0.040 C 
ATOM     15  C   LIG    1        5.659  -5.142   3.984  0.00  0.00    +0.070 C 
ATOM     16  C   LIG    1        3.358  -5.949   3.442  0.00  0.00    +0.050 C 
ENDBRANCH  11  13
ENDBRANCH   1  11
TORSDOF 6
ENDMDL
MODEL      438
REMARK  Name = ZINC000308560908
REMARK                            x       y       z     vdW  Elec       q    Type
REMARK                         _______ _______ _______ _____ _____    ______ ____
ROOT
ATOM      1  C   LIG    1        4.145  -5.166   3.480  0.00  0.00    +0.250 C 
ENDROOT
BRANCH   1   2
ATOM      2  N   LIG    1        5.427  -5.883   3.464  0.00  0.00    -0.510 N 
ATOM      3  H   LIG    1        6.184  -5.220   3.543  0.00  0.00    +0.430 HD
ATOM      4  H   LIG    1        5.516  -6.393   2.598  0.00  0.00    +0.430 HD
BRANCH   2   5
ATOM      5  C   LIG    1        5.477  -6.821   4.593  0.00  0.00    +0.200 C 
ATOM      6  C   LIG    1        4.408  -7.900   4.408  0.00  0.00    +0.090 C 
BRANCH   5   7
ATOM      7  C   LIG    1        6.858  -7.477   4.650  0.00  0.00    -0.080 C 
ATOM      8  C   LIG    1        7.766  -7.112   5.826  0.00  0.00    +0.050 C 
ATOM      9  C   LIG    1        7.112  -8.494   5.764  0.00  0.00    +0.070 C 
ENDBRANCH   5   7
ENDBRANCH   2   5
ENDBRANCH   1   2
BRANCH   1  10
ATOM     10  C   LIG    1        4.093  -4.188   2.304  0.00  0.00    +0.030 C 
BRANCH  10  11
ATOM     11  C   LIG    1        2.757  -3.441   2.321  0.00  0.00    +0.020 C 
BRANCH  11  12
ATOM     12  C   LIG    1        2.705  -2.464   1.145  0.00  0.00    +0.020 C 
BRANCH  12  13
ATOM     13  C   LIG    1        1.370  -1.717   1.161  0.00  0.00    +0.020 C 
BRANCH  13  14
ATOM     14  C   LIG    1        1.317  -0.740  -0.015  0.00  0.00    +0.040 C 
BRANCH  14  16
ATOM     15  C   LIG    1       -0.016   1.306   0.009  0.00  0.00    +0.010 C 
ATOM     16  C   LIG    1        0.002  -0.004   0.002  0.00  0.00    -0.060 C 
ENDBRANCH  14  16
ENDBRANCH  13  14
ENDBRANCH  12  13
ENDBRANCH  11  12
ENDBRANCH  10  11
ENDBRANCH   1  10
TORSDOF 9
ENDMDL
MODEL      439
REMARK  Name = ZINC001174643033
REMARK                            x       y       z     vdW  Elec       q    Type
REMARK                         _______ _______ _______ _____ _____    ______ ____
ROOT
ATOM      1  N   LIG    1        1.289  -1.953   0.598  0.00  0.00    -0.380 N 
ATOM      2  H   LIG    1        0.701  -2.770   0.529  0.00  0.00    +0.420 HD
ENDROOT
BRANCH   1   3
ATOM      3  C   LIG    1        0.784  -1.074   1.661  0.00  0.00    +0.060 C 
ATOM      4  C   LIG    1        1.943  -0.265   2.246  0.00  0.00    +0.080 C 
ATOM      5  C   LIG    1        0.146  -1.921   2.763  0.00  0.00    +0.080 C 
ATOM      6  C   LIG    1       -0.262  -0.120   1.080  0.00  0.00    +0.090 C 
ENDBRANCH   1   3
BRANCH   1   7
ATOM      7  C   LIG    1        1.275  -1.232  -0.682  0.00  0.00    +0.300 C 
BRANCH   7   9
ATOM      8  C   LIG    1       -0.661  -0.034  -1.562  0.00  0.00    +0.120 C 
ATOM      9  C   LIG    1       -0.133  -1.181  -1.215  0.00  0.00    -0.100 C 
ENDBRANCH   7   9
ENDBRANCH   1   7
BRANCH   1  10
ATOM     10  C   LIG    1        2.663  -2.364   0.913  0.00  0.00    +0.250 C 
BRANCH  10  11
ATOM     11  C   LIG    1        2.658  -3.240   2.168  0.00  0.00    -0.020 C 
BRANCH  11  12
ATOM     12  C   LIG    1        4.083  -3.712   2.466  0.00  0.00    +0.040 C 
ATOM     13  C   LIG    1        4.958  -2.505   2.810  0.00  0.00    +0.010 C 
ENDBRANCH  11  12
BRANCH  11  14
ATOM     14  C   LIG    1        1.756  -4.455   1.938  0.00  0.00    -0.000 C 
ATOM     15  C   LIG    1        1.659  -5.269   3.230  0.00  0.00    +0.040 C 
ENDBRANCH  11  14
ENDBRANCH  10  11
ENDBRANCH   1  10
TORSDOF 7
ENDMDL
MODEL      440
REMARK  Name = ZINC000379347428
REMARK                            x       y       z     vdW  Elec       q    Type
REMARK                         _______ _______ _______ _____ _____    ______ ____
ROOT
ATOM      1  N   LIG    1       -3.993  -4.302  -2.304  0.00  0.00    -0.510 N 
ATOM      2  H   LIG    1       -4.728  -3.612  -2.335  0.00  0.00    +0.430 HD
ATOM      3  H   LIG    1       -4.146  -4.921  -1.522  0.00  0.00    +0.430 HD
ENDROOT
BRANCH   1   4
ATOM      4  C   LIG    1       -2.696  -3.629  -2.148  0.00  0.00    +0.250 C 
BRANCH   4   5
ATOM      5  C   LIG    1       -2.738  -2.718  -0.920  0.00  0.00    +0.030 C 
BRANCH   5   6
ATOM      6  C   LIG    1       -1.388  -2.017  -0.758  0.00  0.00    +0.050 C 
BRANCH   6   7
ATOM      7  C   LIG    1       -1.430  -1.106   0.471  0.00  0.00    +0.060 C 
BRANCH   7   9
ATOM      8  C   LIG    1       -0.045   0.891   0.699  0.00  0.00    +0.020 C 
ATOM      9  C   LIG    1       -0.100  -0.416   0.630  0.00  0.00    -0.060 C 
ENDBRANCH   7   9
ENDBRANCH   6   7
ENDBRANCH   5   6
ENDBRANCH   4   5
ENDBRANCH   1   4
BRANCH   1  10
ATOM     10  C   LIG    1       -3.995  -5.077  -3.551  0.00  0.00    +0.170 C 
BRANCH  10  11
ATOM     11  C   LIG    1       -2.979  -6.215  -3.447  0.00  0.00    +0.030 C 
ATOM     12  C   LIG    1       -2.882  -6.938  -4.792  0.00  0.00    +0.060 C 
ENDBRANCH  10  11
BRANCH  10  13
ATOM     13  C   LIG    1       -5.391  -5.659  -3.787  0.00  0.00    +0.060 C 
BRANCH  13  14
ATOM     14  C   LIG    1       -6.387  -4.521  -4.015  0.00  0.00    -0.000 C 
ATOM     15  C   LIG    1       -7.782  -5.103  -4.251  0.00  0.00    +0.030 C 
ENDBRANCH  13  14
ENDBRANCH  10  13
ENDBRANCH   1  10
TORSDOF 9
ENDMDL
MODEL      441
REMARK  Name = ZINC000379347426
REMARK                            x       y       z     vdW  Elec       q    Type
REMARK                         _______ _______ _______ _____ _____    ______ ____
ROOT
ATOM      1  N   LIG    1       -3.533  -4.236  -2.381  0.00  0.00    -0.510 N 
ATOM      2  H   LIG    1       -4.309  -3.598  -2.291  0.00  0.00    +0.430 HD
ATOM      3  H   LIG    1       -3.478  -4.819  -1.559  0.00  0.00    +0.430 HD
ENDROOT
BRANCH   1   4
ATOM      4  C   LIG    1       -2.286  -3.473  -2.523  0.00  0.00    +0.250 C 
BRANCH   4   5
ATOM      5  C   LIG    1       -2.021  -2.685  -1.238  0.00  0.00    +0.030 C 
BRANCH   5   6
ATOM      6  C   LIG    1       -0.722  -1.890  -1.386  0.00  0.00    +0.050 C 
BRANCH   6   7
ATOM      7  C   LIG    1       -0.458  -1.102  -0.101  0.00  0.00    +0.060 C 
BRANCH   7   9
ATOM      8  C   LIG    1        0.822   0.977  -0.051  0.00  0.00    +0.020 C 
ATOM      9  C   LIG    1        0.822  -0.319  -0.247  0.00  0.00    -0.060 C 
ENDBRANCH   7   9
ENDBRANCH   6   7
ENDBRANCH   5   6
ENDBRANCH   4   5
ENDBRANCH   1   4
BRANCH   1  10
ATOM     10  C   LIG    1       -3.728  -5.080  -3.567  0.00  0.00    +0.170 C 
BRANCH  10  11
ATOM     11  C   LIG    1       -3.942  -4.193  -4.795  0.00  0.00    +0.030 C 
ATOM     12  C   LIG    1       -4.023  -5.066  -6.048  0.00  0.00    +0.060 C 
ENDBRANCH  10  11
BRANCH  10  13
ATOM     13  C   LIG    1       -4.954  -5.972  -3.363  0.00  0.00    +0.060 C 
BRANCH  13  14
ATOM     14  C   LIG    1       -4.690  -6.946  -2.212  0.00  0.00    -0.000 C 
ATOM     15  C   LIG    1       -5.916  -7.838  -2.007  0.00  0.00    +0.030 C 
ENDBRANCH  13  14
ENDBRANCH  10  13
ENDBRANCH   1  10
TORSDOF 9
ENDMDL
MODEL      442
REMARK  Name = ZINC001174779635
REMARK                            x       y       z     vdW  Elec       q    Type
REMARK                         _______ _______ _______ _____ _____    ______ ____
ROOT
ATOM      1  N   LIG    1        1.831  -1.437   1.415  0.00  0.00    -0.380 N 
ATOM      2  C   LIG    1        3.133  -2.115   1.421  0.00  0.00    +0.160 C 
ATOM      3  C   LIG    1        3.150  -3.205   0.348  0.00  0.00    +0.060 C 
ATOM      4  C   LIG    1        2.042  -4.221   0.643  0.00  0.00    +0.040 C 
ATOM      5  C   LIG    1        0.698  -3.491   0.708  0.00  0.00    +0.060 C 
ATOM      6  C   LIG    1        0.773  -2.391   1.767  0.00  0.00    +0.160 C 
ATOM      7  C   LIG    1       -0.568  -1.657   1.835  0.00  0.00    +0.090 C 
ATOM      8  H   LIG    1        1.842  -0.684   2.087  0.00  0.00    +0.420 HD
ENDROOT
BRANCH   2   9
ATOM      9  C   LIG    1        4.239  -1.098   1.130  0.00  0.00    +0.040 C 
ATOM     10  C   LIG    1        4.300  -0.072   2.264  0.00  0.00    +0.020 C 
ENDBRANCH   2   9
BRANCH   1  11
ATOM     11  C   LIG    1        1.571  -0.891   0.076  0.00  0.00    +0.300 C 
BRANCH  11  13
ATOM     12  C   LIG    1        3.084   0.681  -1.020  0.00  0.00    +0.110 C 
ATOM     13  C   LIG    1        2.229   0.459  -0.053  0.00  0.00    -0.180 C 
BRANCH  13  14
ATOM     14  C   LIG    1        1.903   1.552   0.931  0.00  0.00    +0.060 C 
ATOM     15  C   LIG    1        0.650   2.299   0.468  0.00  0.00    +0.040 C 
ENDBRANCH  13  14
ENDBRANCH  11  13
ENDBRANCH   1  11
TORSDOF 4
ENDMDL
MODEL      443
REMARK  Name = ZINC000308562981
REMARK                            x       y       z     vdW  Elec       q    Type
REMARK                         _______ _______ _______ _____ _____    ______ ____
ROOT
ATOM      1  C   LIG    1       -4.000  -5.238  -3.533  0.00  0.00    +0.250 C 
ENDROOT
BRANCH   1   2
ATOM      2  N   LIG    1       -5.262  -5.989  -3.525  0.00  0.00    -0.500 N 
ATOM      3  H   LIG    1       -6.037  -5.347  -3.597  0.00  0.00    +0.430 HD
ATOM      4  H   LIG    1       -5.337  -6.511  -2.665  0.00  0.00    +0.430 HD
BRANCH   2   5
ATOM      5  C   LIG    1       -5.287  -6.916  -4.664  0.00  0.00    +0.150 C 
ATOM      6  C   LIG    1       -4.609  -8.266  -4.375  0.00  0.00    +0.050 C 
ATOM      7  C   LIG    1       -5.753  -8.921  -5.166  0.00  0.00    +0.070 C 
ATOM      8  C   LIG    1       -6.607  -7.694  -4.796  0.00  0.00    -0.010 C 
ATOM      9  C   LIG    1       -7.363  -7.849  -3.475  0.00  0.00    +0.060 C 
ENDBRANCH   2   5
ENDBRANCH   1   2
BRANCH   1  10
ATOM     10  C   LIG    1       -3.974  -4.272  -2.346  0.00  0.00    +0.030 C 
BRANCH  10  11
ATOM     11  C   LIG    1       -2.659  -3.489  -2.355  0.00  0.00    +0.020 C 
BRANCH  11  12
ATOM     12  C   LIG    1       -2.633  -2.524  -1.168  0.00  0.00    +0.020 C 
BRANCH  12  13
ATOM     13  C   LIG    1       -1.319  -1.741  -1.176  0.00  0.00    +0.020 C 
BRANCH  13  14
ATOM     14  C   LIG    1       -1.293  -0.775   0.010  0.00  0.00    +0.040 C 
BRANCH  14  16
ATOM     15  C   LIG    1       -0.016   1.306   0.009  0.00  0.00    +0.010 C 
ATOM     16  C   LIG    1        0.002  -0.004   0.002  0.00  0.00    -0.060 C 
ENDBRANCH  14  16
ENDBRANCH  13  14
ENDBRANCH  12  13
ENDBRANCH  11  12
ENDBRANCH  10  11
ENDBRANCH   1  10
TORSDOF 8
ENDMDL
MODEL      444
REMARK  Name = ZINC000308562982
REMARK                            x       y       z     vdW  Elec       q    Type
REMARK                         _______ _______ _______ _____ _____    ______ ____
ROOT
ATOM      1  C   LIG    1       -4.000  -5.238  -3.533  0.00  0.00    +0.250 C 
ENDROOT
BRANCH   1   2
ATOM      2  N   LIG    1       -5.262  -5.989  -3.525  0.00  0.00    -0.500 N 
ATOM      3  H   LIG    1       -6.037  -5.347  -3.597  0.00  0.00    +0.430 HD
ATOM      4  H   LIG    1       -5.337  -6.511  -2.665  0.00  0.00    +0.430 HD
BRANCH   2   5
ATOM      5  C   LIG    1       -5.287  -6.916  -4.664  0.00  0.00    +0.150 C 
ATOM      6  C   LIG    1       -5.802  -6.279  -5.966  0.00  0.00    +0.050 C 
ATOM      7  C   LIG    1       -6.547  -7.599  -6.224  0.00  0.00    +0.070 C 
ATOM      8  C   LIG    1       -6.534  -7.815  -4.700  0.00  0.00    -0.010 C 
ATOM      9  C   LIG    1       -7.746  -7.212  -3.985  0.00  0.00    +0.060 C 
ENDBRANCH   2   5
ENDBRANCH   1   2
BRANCH   1  10
ATOM     10  C   LIG    1       -3.974  -4.272  -2.346  0.00  0.00    +0.030 C 
BRANCH  10  11
ATOM     11  C   LIG    1       -2.659  -3.489  -2.355  0.00  0.00    +0.020 C 
BRANCH  11  12
ATOM     12  C   LIG    1       -2.633  -2.524  -1.168  0.00  0.00    +0.020 C 
BRANCH  12  13
ATOM     13  C   LIG    1       -1.319  -1.741  -1.176  0.00  0.00    +0.020 C 
BRANCH  13  14
ATOM     14  C   LIG    1       -1.293  -0.775   0.010  0.00  0.00    +0.040 C 
BRANCH  14  16
ATOM     15  C   LIG    1       -0.016   1.306   0.009  0.00  0.00    +0.010 C 
ATOM     16  C   LIG    1        0.002  -0.004   0.002  0.00  0.00    -0.060 C 
ENDBRANCH  14  16
ENDBRANCH  13  14
ENDBRANCH  12  13
ENDBRANCH  11  12
ENDBRANCH  10  11
ENDBRANCH   1  10
TORSDOF 8
ENDMDL
MODEL      445
REMARK  Name = ZINC000308562780
REMARK                            x       y       z     vdW  Elec       q    Type
REMARK                         _______ _______ _______ _____ _____    ______ ____
ROOT
ATOM      1  C   LIG    1       -4.000  -5.238  -3.533  0.00  0.00    +0.250 C 
ENDROOT
BRANCH   1   2
ATOM      2  N   LIG    1       -5.262  -5.989  -3.525  0.00  0.00    -0.500 N 
ATOM      3  H   LIG    1       -6.037  -5.347  -3.597  0.00  0.00    +0.430 HD
ATOM      4  H   LIG    1       -5.337  -6.511  -2.665  0.00  0.00    +0.430 HD
BRANCH   2   5
ATOM      5  C   LIG    1       -5.287  -6.916  -4.664  0.00  0.00    +0.150 C 
ATOM      6  C   LIG    1       -5.802  -6.279  -5.966  0.00  0.00    +0.050 C 
ATOM      7  C   LIG    1       -6.547  -7.599  -6.224  0.00  0.00    +0.070 C 
ATOM      8  C   LIG    1       -6.534  -7.815  -4.700  0.00  0.00    -0.010 C 
ATOM      9  C   LIG    1       -6.263  -9.263  -4.288  0.00  0.00    +0.050 C 
ENDBRANCH   2   5
ENDBRANCH   1   2
BRANCH   1  10
ATOM     10  C   LIG    1       -3.974  -4.272  -2.346  0.00  0.00    +0.030 C 
BRANCH  10  11
ATOM     11  C   LIG    1       -2.659  -3.489  -2.355  0.00  0.00    +0.020 C 
BRANCH  11  12
ATOM     12  C   LIG    1       -2.633  -2.524  -1.168  0.00  0.00    +0.020 C 
BRANCH  12  13
ATOM     13  C   LIG    1       -1.319  -1.741  -1.176  0.00  0.00    +0.020 C 
BRANCH  13  14
ATOM     14  C   LIG    1       -1.293  -0.775   0.010  0.00  0.00    +0.040 C 
BRANCH  14  16
ATOM     15  C   LIG    1       -0.016   1.306   0.009  0.00  0.00    +0.010 C 
ATOM     16  C   LIG    1        0.002  -0.004   0.002  0.00  0.00    -0.060 C 
ENDBRANCH  14  16
ENDBRANCH  13  14
ENDBRANCH  12  13
ENDBRANCH  11  12
ENDBRANCH  10  11
ENDBRANCH   1  10
TORSDOF 8
ENDMDL
MODEL      446
REMARK  Name = ZINC000308562983
REMARK                            x       y       z     vdW  Elec       q    Type
REMARK                         _______ _______ _______ _____ _____    ______ ____
ROOT
ATOM      1  C   LIG    1       -4.000  -5.238  -3.533  0.00  0.00    +0.250 C 
ENDROOT
BRANCH   1   2
ATOM      2  N   LIG    1       -5.262  -5.989  -3.525  0.00  0.00    -0.500 N 
ATOM      3  H   LIG    1       -6.037  -5.347  -3.597  0.00  0.00    +0.430 HD
ATOM      4  H   LIG    1       -5.337  -6.511  -2.665  0.00  0.00    +0.430 HD
BRANCH   2   5
ATOM      5  C   LIG    1       -5.287  -6.916  -4.664  0.00  0.00    +0.150 C 
ATOM      6  C   LIG    1       -4.609  -8.266  -4.375  0.00  0.00    +0.050 C 
ATOM      7  C   LIG    1       -5.753  -8.921  -5.166  0.00  0.00    +0.070 C 
ATOM      8  C   LIG    1       -6.607  -7.694  -4.796  0.00  0.00    -0.010 C 
ATOM      9  C   LIG    1       -7.501  -7.203  -5.937  0.00  0.00    +0.050 C 
ENDBRANCH   2   5
ENDBRANCH   1   2
BRANCH   1  10
ATOM     10  C   LIG    1       -3.974  -4.272  -2.346  0.00  0.00    +0.030 C 
BRANCH  10  11
ATOM     11  C   LIG    1       -2.659  -3.489  -2.355  0.00  0.00    +0.020 C 
BRANCH  11  12
ATOM     12  C   LIG    1       -2.633  -2.524  -1.168  0.00  0.00    +0.020 C 
BRANCH  12  13
ATOM     13  C   LIG    1       -1.319  -1.741  -1.176  0.00  0.00    +0.020 C 
BRANCH  13  14
ATOM     14  C   LIG    1       -1.293  -0.775   0.010  0.00  0.00    +0.040 C 
BRANCH  14  16
ATOM     15  C   LIG    1       -0.016   1.306   0.009  0.00  0.00    +0.010 C 
ATOM     16  C   LIG    1        0.002  -0.004   0.002  0.00  0.00    -0.060 C 
ENDBRANCH  14  16
ENDBRANCH  13  14
ENDBRANCH  12  13
ENDBRANCH  11  12
ENDBRANCH  10  11
ENDBRANCH   1  10
TORSDOF 8
ENDMDL
MODEL      447
REMARK  Name = ZINC000379416781
REMARK                            x       y       z     vdW  Elec       q    Type
REMARK                         _______ _______ _______ _____ _____    ______ ____
ROOT
ATOM      1  C   LIG    1        2.954  -2.477   0.908  0.00  0.00    +0.160 C 
ENDROOT
BRANCH   1   2
ATOM      2  N   LIG    1        4.157  -1.657   1.103  0.00  0.00    -0.510 N 
ATOM      3  H   LIG    1        4.949  -2.258   1.276  0.00  0.00    +0.420 HD
ATOM      4  H   LIG    1        4.021  -1.043   1.892  0.00  0.00    +0.420 HD
BRANCH   2   5
ATOM      5  C   LIG    1        4.404  -0.857  -0.104  0.00  0.00    +0.150 C 
ATOM      6  C   LIG    1        4.737  -1.786  -1.273  0.00  0.00    +0.090 C 
BRANCH   5   7
ATOM      7  C   LIG    1        5.579   0.091   0.144  0.00  0.00    +0.050 C 
ATOM      8  C   LIG    1        5.199   1.101   1.229  0.00  0.00    +0.030 C 
ENDBRANCH   5   7
ENDBRANCH   2   5
ENDBRANCH   1   2
BRANCH   1   9
ATOM      9  C   LIG    1        1.740  -1.748   1.488  0.00  0.00    +0.070 C 
BRANCH   9  10
ATOM     10  C   LIG    1        1.457  -0.492   0.660  0.00  0.00    +0.050 C 
BRANCH  10  12
ATOM     11  C   LIG    1        0.207   1.420   1.522  0.00  0.00    +0.040 C 
ATOM     12  C   LIG    1        0.194   0.162   1.156  0.00  0.00    -0.050 C 
ENDBRANCH  10  12
ENDBRANCH   9  10
ENDBRANCH   1   9
BRANCH   1  13
ATOM     13  C   LIG    1        3.130  -3.819   1.622  0.00  0.00    +0.050 C 
BRANCH  13  14
ATOM     14  C   LIG    1        4.252  -4.611   0.948  0.00  0.00    -0.000 C 
ATOM     15  C   LIG    1        4.346  -6.002   1.580  0.00  0.00    +0.030 C 
ENDBRANCH  13  14
ENDBRANCH   1  13
TORSDOF 8
ENDMDL
MODEL      448
REMARK  Name = ZINC000379416782
REMARK                            x       y       z     vdW  Elec       q    Type
REMARK                         _______ _______ _______ _____ _____    ______ ____
ROOT
ATOM      1  C   LIG    1        2.723  -2.434   1.087  0.00  0.00    +0.160 C 
ENDROOT
BRANCH   1   2
ATOM      2  N   LIG    1        2.762  -3.189  -0.172  0.00  0.00    -0.510 N 
ATOM      3  H   LIG    1        2.027  -3.879  -0.174  0.00  0.00    +0.420 HD
ATOM      4  H   LIG    1        3.656  -3.649  -0.261  0.00  0.00    +0.420 HD
BRANCH   2   5
ATOM      5  C   LIG    1        2.571  -2.268  -1.301  0.00  0.00    +0.160 C 
ATOM      6  C   LIG    1        3.773  -1.326  -1.399  0.00  0.00    +0.090 C 
BRANCH   5   7
ATOM      7  C   LIG    1        2.444  -3.070  -2.598  0.00  0.00    +0.050 C 
ATOM      8  C   LIG    1        1.173  -3.920  -2.549  0.00  0.00    +0.030 C 
ENDBRANCH   5   7
ENDBRANCH   2   5
ENDBRANCH   1   2
BRANCH   1   9
ATOM      9  C   LIG    1        1.283  -2.372   1.600  0.00  0.00    +0.060 C 
BRANCH   9  10
ATOM     10  C   LIG    1        0.418  -1.602   0.600  0.00  0.00    +0.040 C 
BRANCH  10  12
ATOM     11  C   LIG    1       -1.486  -0.227   1.265  0.00  0.00    +0.050 C 
ATOM     12  C   LIG    1       -0.967  -1.425   1.166  0.00  0.00    -0.060 C 
ENDBRANCH  10  12
ENDBRANCH   9  10
ENDBRANCH   1   9
BRANCH   1  13
ATOM     13  C   LIG    1        3.605  -3.130   2.126  0.00  0.00    +0.050 C 
BRANCH  13  14
ATOM     14  C   LIG    1        5.066  -3.076   1.673  0.00  0.00    -0.010 C 
ATOM     15  C   LIG    1        5.932  -3.873   2.651  0.00  0.00    +0.040 C 
ENDBRANCH  13  14
ENDBRANCH   1  13
TORSDOF 8
ENDMDL
MODEL      449
REMARK  Name = ZINC000379416784
REMARK                            x       y       z     vdW  Elec       q    Type
REMARK                         _______ _______ _______ _____ _____    ______ ____
ROOT
ATOM      1  C   LIG    1        2.802  -2.474   1.073  0.00  0.00    +0.160 C 
ENDROOT
BRANCH   1   2
ATOM      2  N   LIG    1        2.631  -3.382  -0.069  0.00  0.00    -0.510 N 
ATOM      3  H   LIG    1        2.430  -2.845  -0.899  0.00  0.00    +0.420 HD
ATOM      4  H   LIG    1        1.868  -4.015   0.116  0.00  0.00    +0.420 HD
BRANCH   2   5
ATOM      5  C   LIG    1        3.867  -4.151  -0.272  0.00  0.00    +0.160 C 
ATOM      6  C   LIG    1        4.995  -3.204  -0.683  0.00  0.00    +0.090 C 
BRANCH   5   7
ATOM      7  C   LIG    1        3.646  -5.190  -1.373  0.00  0.00    +0.050 C 
ATOM      8  C   LIG    1        2.605  -6.211  -0.910  0.00  0.00    +0.030 C 
ENDBRANCH   5   7
ENDBRANCH   2   5
ENDBRANCH   1   2
BRANCH   1   9
ATOM      9  C   LIG    1        1.575  -1.568   1.191  0.00  0.00    +0.070 C 
BRANCH   9  10
ATOM     10  C   LIG    1        1.490  -0.661  -0.038  0.00  0.00    +0.040 C 
BRANCH  10  12
ATOM     11  C   LIG    1        0.416   1.532  -0.007  0.00  0.00    +0.050 C 
ATOM     12  C   LIG    1        0.281   0.231   0.078  0.00  0.00    -0.070 C 
ENDBRANCH  10  12
ENDBRANCH   9  10
ENDBRANCH   1   9
BRANCH   1  13
ATOM     13  C   LIG    1        2.958  -3.292   2.356  0.00  0.00    +0.040 C 
BRANCH  13  14
ATOM     14  C   LIG    1        3.240  -2.351   3.529  0.00  0.00    +0.030 C 
ATOM     15  C   LIG    1        3.527  -3.175   4.786  0.00  0.00    +0.030 C 
ENDBRANCH  13  14
ENDBRANCH   1  13
TORSDOF 8
ENDMDL
MODEL      450
REMARK  Name = ZINC000379416783
REMARK                            x       y       z     vdW  Elec       q    Type
REMARK                         _______ _______ _______ _____ _____    ______ ____
ROOT
ATOM      1  C   LIG    1        2.848  -2.485   1.277  0.00  0.00    +0.160 C 
ENDROOT
BRANCH   1   2
ATOM      2  N   LIG    1        3.925  -1.488   1.201  0.00  0.00    -0.510 N 
ATOM      3  H   LIG    1        4.043  -1.051   2.103  0.00  0.00    +0.420 HD
ATOM      4  H   LIG    1        3.686  -0.786   0.516  0.00  0.00    +0.420 HD
BRANCH   2   5
ATOM      5  C   LIG    1        5.177  -2.149   0.809  0.00  0.00    +0.160 C 
ATOM      6  C   LIG    1        5.046  -2.686  -0.617  0.00  0.00    +0.090 C 
BRANCH   5   7
ATOM      7  C   LIG    1        6.326  -1.141   0.871  0.00  0.00    +0.050 C 
ATOM      8  C   LIG    1        6.539  -0.697   2.320  0.00  0.00    +0.030 C 
ENDBRANCH   5   7
ENDBRANCH   2   5
ENDBRANCH   1   2
BRANCH   1   9
ATOM      9  C   LIG    1        1.518  -1.779   1.550  0.00  0.00    +0.070 C 
BRANCH   9  10
ATOM     10  C   LIG    1        1.161  -0.887   0.359  0.00  0.00    +0.050 C 
BRANCH  10  12
ATOM     11  C   LIG    1       -0.224   1.114   0.560  0.00  0.00    +0.040 C 
ATOM     12  C   LIG    1       -0.149  -0.192   0.628  0.00  0.00    -0.050 C 
ENDBRANCH  10  12
ENDBRANCH   9  10
ENDBRANCH   1   9
BRANCH   1  13
ATOM     13  C   LIG    1        3.144  -3.470   2.409  0.00  0.00    +0.040 C 
BRANCH  13  14
ATOM     14  C   LIG    1        2.100  -4.588   2.398  0.00  0.00    +0.030 C 
ATOM     15  C   LIG    1        2.348  -5.529   3.579  0.00  0.00    +0.030 C 
ENDBRANCH  13  14
ENDBRANCH   1  13
TORSDOF 8
ENDMDL
MODEL      451
REMARK  Name = ZINC000379496282
REMARK                            x       y       z     vdW  Elec       q    Type
REMARK                         _______ _______ _______ _____ _____    ______ ____
ROOT
ATOM      1  N   LIG    1        3.012  -3.282   2.206  0.00  0.00    -0.510 N 
ATOM      2  H   LIG    1        3.013  -2.702   1.381  0.00  0.00    +0.430 HD
ATOM      3  H   LIG    1        2.196  -3.875   2.200  0.00  0.00    +0.430 HD
ENDROOT
BRANCH   1   4
ATOM      4  C   LIG    1        2.989  -2.430   3.403  0.00  0.00    +0.250 C 
BRANCH   4   5
ATOM      5  C   LIG    1        1.801  -1.469   3.322  0.00  0.00    +0.040 C 
BRANCH   5   6
ATOM      6  C   LIG    1        1.777  -0.583   4.569  0.00  0.00    +0.070 C 
BRANCH   6   8
ATOM      7  C   LIG    1       -0.268   0.406   5.463  0.00  0.00    +0.030 C 
ATOM      8  C   LIG    1        0.607   0.364   4.490  0.00  0.00    -0.070 C 
ENDBRANCH   6   8
ENDBRANCH   5   6
ENDBRANCH   4   5
ENDBRANCH   1   4
BRANCH   1   9
ATOM      9  C   LIG    1        4.222  -4.114   2.221  0.00  0.00    +0.160 C 
BRANCH   9  10
ATOM     10  C   LIG    1        4.316  -4.901   0.912  0.00  0.00    +0.050 C 
ATOM     11  C   LIG    1        4.505  -3.929  -0.254  0.00  0.00    +0.030 C 
ENDBRANCH   9  10
BRANCH   9  12
ATOM     12  C   LIG    1        4.156  -5.090   3.398  0.00  0.00    +0.040 C 
BRANCH  12  13
ATOM     13  C   LIG    1        5.477  -5.855   3.501  0.00  0.00    -0.010 C 
ATOM     14  C   LIG    1        6.602  -4.884   3.862  0.00  0.00    +0.020 C 
BRANCH  13  15
ATOM     15  C   LIG    1        5.361  -6.928   4.586  0.00  0.00    +0.020 C 
ATOM     16  C   LIG    1        6.636  -7.774   4.605  0.00  0.00    +0.020 C 
ENDBRANCH  13  15
ENDBRANCH  12  13
ENDBRANCH   9  12
ENDBRANCH   1   9
TORSDOF 9
ENDMDL
MODEL      452
REMARK  Name = ZINC000379496284
REMARK                            x       y       z     vdW  Elec       q    Type
REMARK                         _______ _______ _______ _____ _____    ______ ____
ROOT
ATOM      1  N   LIG    1        2.749  -3.428   2.374  0.00  0.00    -0.510 N 
ATOM      2  H   LIG    1        1.951  -4.035   2.266  0.00  0.00    +0.430 HD
ATOM      3  H   LIG    1        2.743  -3.025   3.299  0.00  0.00    +0.430 HD
ENDROOT
BRANCH   1   4
ATOM      4  C   LIG    1        2.687  -2.355   1.372  0.00  0.00    +0.250 C 
BRANCH   4   5
ATOM      5  C   LIG    1        1.343  -1.632   1.482  0.00  0.00    +0.040 C 
BRANCH   5   6
ATOM      6  C   LIG    1        1.278  -0.515   0.439  0.00  0.00    +0.070 C 
BRANCH   6   8
ATOM      7  C   LIG    1       -0.079   1.496   0.719  0.00  0.00    +0.030 C 
ATOM      8  C   LIG    1       -0.046   0.197   0.547  0.00  0.00    -0.070 C 
ENDBRANCH   6   8
ENDBRANCH   5   6
ENDBRANCH   4   5
ENDBRANCH   1   4
BRANCH   1   9
ATOM      9  C   LIG    1        3.983  -4.202   2.185  0.00  0.00    +0.160 C 
BRANCH   9  10
ATOM     10  C   LIG    1        5.193  -3.316   2.490  0.00  0.00    +0.030 C 
ATOM     11  C   LIG    1        6.479  -4.078   2.162  0.00  0.00    +0.060 C 
ENDBRANCH   9  10
BRANCH   9  12
ATOM     12  C   LIG    1        3.980  -5.404   3.132  0.00  0.00    +0.060 C 
BRANCH  12  13
ATOM     13  C   LIG    1        2.844  -6.354   2.747  0.00  0.00    -0.040 C 
ATOM     14  C   LIG    1        3.112  -6.934   1.357  0.00  0.00    +0.030 C 
BRANCH  13  15
ATOM     15  C   LIG    1        2.762  -7.491   3.767  0.00  0.00    +0.020 C 
ATOM     16  C   LIG    1        1.549  -8.370   3.454  0.00  0.00    +0.010 C 
ENDBRANCH  13  15
ENDBRANCH  12  13
ENDBRANCH   9  12
ENDBRANCH   1   9
TORSDOF 9
ENDMDL
MODEL      453
REMARK  Name = ZINC000379496281
REMARK                            x       y       z     vdW  Elec       q    Type
REMARK                         _______ _______ _______ _____ _____    ______ ____
ROOT
ATOM      1  N   LIG    1        3.220  -3.116   2.878  0.00  0.00    -0.510 N 
ATOM      2  H   LIG    1        3.083  -3.007   3.871  0.00  0.00    +0.430 HD
ATOM      3  H   LIG    1        3.639  -2.278   2.502  0.00  0.00    +0.430 HD
ENDROOT
BRANCH   1   4
ATOM      4  C   LIG    1        1.924  -3.349   2.227  0.00  0.00    +0.250 C 
BRANCH   4   5
ATOM      5  C   LIG    1        0.979  -2.188   2.544  0.00  0.00    +0.040 C 
BRANCH   5   6
ATOM      6  C   LIG    1       -0.371  -2.430   1.866  0.00  0.00    +0.070 C 
BRANCH   6   8
ATOM      7  C   LIG    1       -1.875  -0.625   1.203  0.00  0.00    +0.030 C 
ATOM      8  C   LIG    1       -1.302  -1.287   2.178  0.00  0.00    -0.070 C 
ENDBRANCH   6   8
ENDBRANCH   5   6
ENDBRANCH   4   5
ENDBRANCH   1   4
BRANCH   1   9
ATOM      9  C   LIG    1        4.106  -4.261   2.628  0.00  0.00    +0.160 C 
BRANCH   9  10
ATOM     10  C   LIG    1        5.503  -3.953   3.171  0.00  0.00    +0.050 C 
ATOM     11  C   LIG    1        6.106  -2.782   2.393  0.00  0.00    +0.020 C 
ENDBRANCH   9  10
BRANCH   9  12
ATOM     12  C   LIG    1        3.548  -5.500   3.330  0.00  0.00    +0.040 C 
BRANCH  12  13
ATOM     13  C   LIG    1        4.422  -6.711   3.000  0.00  0.00    -0.010 C 
ATOM     14  C   LIG    1        4.305  -7.034   1.509  0.00  0.00    +0.020 C 
BRANCH  13  15
ATOM     15  C   LIG    1        3.957  -7.916   3.821  0.00  0.00    +0.020 C 
ATOM     16  C   LIG    1        4.907  -9.092   3.585  0.00  0.00    +0.020 C 
ENDBRANCH  13  15
ENDBRANCH  12  13
ENDBRANCH   9  12
ENDBRANCH   1   9
TORSDOF 9
ENDMDL
MODEL      454
REMARK  Name = ZINC000379496280
REMARK                            x       y       z     vdW  Elec       q    Type
REMARK                         _______ _______ _______ _____ _____    ______ ____
ROOT
ATOM      1  N   LIG    1        2.926  -3.126   2.058  0.00  0.00    -0.510 N 
ATOM      2  H   LIG    1        2.087  -3.686   2.074  0.00  0.00    +0.430 HD
ATOM      3  H   LIG    1        2.955  -2.539   2.878  0.00  0.00    +0.430 HD
ENDROOT
BRANCH   1   4
ATOM      4  C   LIG    1        2.931  -2.286   0.853  0.00  0.00    +0.250 C 
BRANCH   4   5
ATOM      5  C   LIG    1        1.774  -1.287   0.923  0.00  0.00    +0.040 C 
BRANCH   5   6
ATOM      6  C   LIG    1        1.779  -0.412  -0.332  0.00  0.00    +0.070 C 
BRANCH   6   8
ATOM      7  C   LIG    1        0.874   1.855  -0.381  0.00  0.00    +0.030 C 
ATOM      8  C   LIG    1        0.639   0.572  -0.262  0.00  0.00    -0.070 C 
ENDBRANCH   6   8
ENDBRANCH   5   6
ENDBRANCH   4   5
ENDBRANCH   1   4
BRANCH   1   9
ATOM      9  C   LIG    1        4.102  -4.007   2.045  0.00  0.00    +0.160 C 
BRANCH   9  10
ATOM     10  C   LIG    1        3.993  -4.987   0.875  0.00  0.00    +0.030 C 
ATOM     11  C   LIG    1        5.272  -5.822   0.788  0.00  0.00    +0.060 C 
ENDBRANCH   9  10
BRANCH   9  12
ATOM     12  C   LIG    1        4.169  -4.787   3.360  0.00  0.00    +0.060 C 
BRANCH  12  13
ATOM     13  C   LIG    1        4.404  -3.816   4.518  0.00  0.00    -0.040 C 
ATOM     14  C   LIG    1        5.778  -3.162   4.365  0.00  0.00    +0.030 C 
BRANCH  13  15
ATOM     15  C   LIG    1        4.346  -4.579   5.843  0.00  0.00    +0.020 C 
ATOM     16  C   LIG    1        4.456  -3.590   7.006  0.00  0.00    +0.010 C 
ENDBRANCH  13  15
ENDBRANCH  12  13
ENDBRANCH   9  12
ENDBRANCH   1   9
TORSDOF 9
ENDMDL
MODEL      455
REMARK  Name = ZINC000379541604
REMARK                            x       y       z     vdW  Elec       q    Type
REMARK                         _______ _______ _______ _____ _____    ______ ____
ROOT
ATOM      1  N   LIG    1        4.039  -4.159   2.305  0.00  0.00    -0.510 N 
ATOM      2  H   LIG    1        4.796  -3.496   2.384  0.00  0.00    +0.430 HD
ATOM      3  H   LIG    1        4.128  -4.669   1.439  0.00  0.00    +0.430 HD
ENDROOT
BRANCH   1   4
ATOM      4  C   LIG    1        4.090  -5.097   3.434  0.00  0.00    +0.170 C 
ATOM      5  C   LIG    1        3.020  -6.175   3.248  0.00  0.00    +0.090 C 
BRANCH   4   6
ATOM      6  C   LIG    1        5.471  -5.753   3.490  0.00  0.00    +0.060 C 
BRANCH   6   7
ATOM      7  C   LIG    1        6.527  -4.690   3.800  0.00  0.00    +0.010 C 
BRANCH   7   8
ATOM      8  C   LIG    1        7.909  -5.346   3.857  0.00  0.00    -0.020 C 
ATOM      9  C   LIG    1        7.961  -6.324   5.033  0.00  0.00    +0.020 C 
ATOM     10  C   LIG    1        8.978  -4.268   4.042  0.00  0.00    +0.030 C 
ENDBRANCH   7   8
ENDBRANCH   6   7
ENDBRANCH   4   6
ENDBRANCH   1   4
BRANCH   1  11
ATOM     11  C   LIG    1        2.757  -3.441   2.321  0.00  0.00    +0.250 C 
BRANCH  11  12
ATOM     12  C   LIG    1        2.705  -2.464   1.145  0.00  0.00    +0.030 C 
BRANCH  12  13
ATOM     13  C   LIG    1        1.370  -1.717   1.161  0.00  0.00    +0.050 C 
BRANCH  13  14
ATOM     14  C   LIG    1        1.317  -0.740  -0.015  0.00  0.00    +0.060 C 
BRANCH  14  16
ATOM     15  C   LIG    1       -0.016   1.306   0.009  0.00  0.00    +0.020 C 
ATOM     16  C   LIG    1        0.002  -0.004   0.002  0.00  0.00    -0.060 C 
ENDBRANCH  14  16
ENDBRANCH  13  14
ENDBRANCH  12  13
ENDBRANCH  11  12
ENDBRANCH   1  11
TORSDOF 9
ENDMDL
MODEL      456
REMARK  Name = ZINC000379541602
REMARK                            x       y       z     vdW  Elec       q    Type
REMARK                         _______ _______ _______ _____ _____    ______ ____
ROOT
ATOM      1  N   LIG    1        4.039  -4.159   2.305  0.00  0.00    -0.510 N 
ATOM      2  H   LIG    1        4.796  -3.496   2.384  0.00  0.00    +0.430 HD
ATOM      3  H   LIG    1        4.128  -4.669   1.439  0.00  0.00    +0.430 HD
ENDROOT
BRANCH   1   4
ATOM      4  C   LIG    1        4.090  -5.097   3.434  0.00  0.00    +0.170 C 
ATOM      5  C   LIG    1        4.080  -4.314   4.748  0.00  0.00    +0.090 C 
BRANCH   4   6
ATOM      6  C   LIG    1        5.369  -5.932   3.346  0.00  0.00    +0.050 C 
BRANCH   6   7
ATOM      7  C   LIG    1        5.321  -6.808   2.093  0.00  0.00    +0.010 C 
BRANCH   7   8
ATOM      8  C   LIG    1        6.601  -7.643   2.006  0.00  0.00    -0.020 C 
ATOM      9  C   LIG    1        7.801  -6.716   1.806  0.00  0.00    +0.010 C 
ATOM     10  C   LIG    1        6.500  -8.609   0.824  0.00  0.00    +0.030 C 
ENDBRANCH   7   8
ENDBRANCH   6   7
ENDBRANCH   4   6
ENDBRANCH   1   4
BRANCH   1  11
ATOM     11  C   LIG    1        2.757  -3.441   2.321  0.00  0.00    +0.250 C 
BRANCH  11  12
ATOM     12  C   LIG    1        2.705  -2.464   1.145  0.00  0.00    +0.030 C 
BRANCH  12  13
ATOM     13  C   LIG    1        1.370  -1.717   1.161  0.00  0.00    +0.050 C 
BRANCH  13  14
ATOM     14  C   LIG    1        1.317  -0.740  -0.015  0.00  0.00    +0.050 C 
BRANCH  14  16
ATOM     15  C   LIG    1       -0.016   1.306   0.009  0.00  0.00    +0.020 C 
ATOM     16  C   LIG    1        0.002  -0.004   0.002  0.00  0.00    -0.060 C 
ENDBRANCH  14  16
ENDBRANCH  13  14
ENDBRANCH  12  13
ENDBRANCH  11  12
ENDBRANCH   1  11
TORSDOF 9
ENDMDL
MODEL      457
REMARK  Name = ZINC000379509157
REMARK                            x       y       z     vdW  Elec       q    Type
REMARK                         _______ _______ _______ _____ _____    ______ ____
ROOT
ATOM      1  N   LIG    1       -3.921  -4.241  -2.347  0.00  0.00    -0.510 N 
ATOM      2  H   LIG    1       -4.696  -3.598  -2.419  0.00  0.00    +0.430 HD
ATOM      3  H   LIG    1       -3.996  -4.763  -1.486  0.00  0.00    +0.430 HD
ENDROOT
BRANCH   1   4
ATOM      4  C   LIG    1       -3.946  -5.168  -3.486  0.00  0.00    +0.170 C 
ATOM      5  C   LIG    1       -2.883  -6.217  -3.307  0.00  0.00    +0.020 C 
ATOM      6  C   LIG    1       -2.267  -6.666  -4.646  0.00  0.00    +0.030 C 
ATOM      7  C   LIG    1       -3.319  -6.845  -5.758  0.00  0.00    +0.000 C 
ATOM      8  C   LIG    1       -4.570  -7.519  -5.263  0.00  0.00    +0.020 C 
ATOM      9  C   LIG    1       -5.590  -6.431  -4.869  0.00  0.00    +0.020 C 
ATOM     10  C   LIG    1       -5.319  -5.868  -3.554  0.00  0.00    +0.040 C 
ENDBRANCH   1   4
BRANCH   1  11
ATOM     11  C   LIG    1       -2.659  -3.489  -2.355  0.00  0.00    +0.250 C 
BRANCH  11  12
ATOM     12  C   LIG    1       -2.633  -2.524  -1.168  0.00  0.00    +0.030 C 
BRANCH  12  13
ATOM     13  C   LIG    1       -1.319  -1.741  -1.176  0.00  0.00    +0.050 C 
BRANCH  13  14
ATOM     14  C   LIG    1       -1.293  -0.775   0.010  0.00  0.00    +0.050 C 
BRANCH  14  16
ATOM     15  C   LIG    1       -0.016   1.306   0.009  0.00  0.00    +0.020 C 
ATOM     16  C   LIG    1        0.002  -0.004   0.002  0.00  0.00    -0.060 C 
ENDBRANCH  14  16
ENDBRANCH  13  14
ENDBRANCH  12  13
ENDBRANCH  11  12
ENDBRANCH   1  11
TORSDOF 6
ENDMDL
MODEL      458
REMARK  Name = ZINC000379546400
REMARK                            x       y       z     vdW  Elec       q    Type
REMARK                         _______ _______ _______ _____ _____    ______ ____
ROOT
ATOM      1  N   LIG    1        4.039  -4.159   2.305  0.00  0.00    -0.510 N 
ATOM      2  H   LIG    1        4.796  -3.496   2.384  0.00  0.00    +0.430 HD
ATOM      3  H   LIG    1        4.128  -4.669   1.439  0.00  0.00    +0.430 HD
ENDROOT
BRANCH   1   4
ATOM      4  C   LIG    1        4.090  -5.097   3.434  0.00  0.00    +0.170 C 
ATOM      5  C   LIG    1        3.051  -6.220   3.234  0.00  0.00    +0.050 C 
ATOM      6  C   LIG    1        3.752  -7.488   3.782  0.00  0.00    +0.050 C 
ATOM      7  C   LIG    1        5.219  -7.291   3.325  0.00  0.00    +0.050 C 
ATOM      8  C   LIG    1        5.469  -5.777   3.493  0.00  0.00    -0.080 C 
ATOM      9  C   LIG    1        6.133  -5.501   4.843  0.00  0.00    +0.060 C 
ATOM     10  C   LIG    1        6.355  -5.263   2.356  0.00  0.00    +0.030 C 
ENDBRANCH   1   4
BRANCH   1  11
ATOM     11  C   LIG    1        2.757  -3.441   2.321  0.00  0.00    +0.250 C 
BRANCH  11  12
ATOM     12  C   LIG    1        2.705  -2.464   1.145  0.00  0.00    +0.030 C 
BRANCH  12  13
ATOM     13  C   LIG    1        1.370  -1.717   1.161  0.00  0.00    +0.050 C 
BRANCH  13  14
ATOM     14  C   LIG    1        1.317  -0.740  -0.015  0.00  0.00    +0.050 C 
BRANCH  14  16
ATOM     15  C   LIG    1       -0.016   1.306   0.009  0.00  0.00    +0.020 C 
ATOM     16  C   LIG    1        0.002  -0.004   0.002  0.00  0.00    -0.060 C 
ENDBRANCH  14  16
ENDBRANCH  13  14
ENDBRANCH  12  13
ENDBRANCH  11  12
ENDBRANCH   1  11
TORSDOF 6
ENDMDL
MODEL      459
REMARK  Name = ZINC000379569568
REMARK                            x       y       z     vdW  Elec       q    Type
REMARK                         _______ _______ _______ _____ _____    ______ ____
ROOT
ATOM      1  N   LIG    1       -3.921  -4.241  -2.347  0.00  0.00    -0.510 N 
ATOM      2  H   LIG    1       -4.696  -3.598  -2.419  0.00  0.00    +0.430 HD
ATOM      3  H   LIG    1       -3.996  -4.763  -1.486  0.00  0.00    +0.430 HD
ENDROOT
BRANCH   1   4
ATOM      4  C   LIG    1       -3.946  -5.168  -3.486  0.00  0.00    +0.170 C 
ATOM      5  C   LIG    1       -2.848  -6.219  -3.313  0.00  0.00    +0.040 C 
ATOM      6  C   LIG    1       -2.874  -7.184  -4.499  0.00  0.00    +0.040 C 
ATOM      7  C   LIG    1       -4.237  -7.877  -4.564  0.00  0.00    -0.010 C 
ATOM      8  C   LIG    1       -5.335  -6.826  -4.737  0.00  0.00    +0.050 C 
ATOM      9  C   LIG    1       -4.476  -8.655  -3.268  0.00  0.00    +0.010 C 
ATOM     10  C   LIG    1       -5.309  -5.860  -3.550  0.00  0.00    +0.040 C 
ENDBRANCH   1   4
BRANCH   1  11
ATOM     11  C   LIG    1       -2.659  -3.489  -2.355  0.00  0.00    +0.250 C 
BRANCH  11  12
ATOM     12  C   LIG    1       -2.633  -2.524  -1.168  0.00  0.00    +0.030 C 
BRANCH  12  13
ATOM     13  C   LIG    1       -1.319  -1.741  -1.176  0.00  0.00    +0.050 C 
BRANCH  13  14
ATOM     14  C   LIG    1       -1.293  -0.775   0.010  0.00  0.00    +0.050 C 
BRANCH  14  16
ATOM     15  C   LIG    1       -0.016   1.306   0.009  0.00  0.00    +0.020 C 
ATOM     16  C   LIG    1        0.002  -0.004   0.002  0.00  0.00    -0.060 C 
ENDBRANCH  14  16
ENDBRANCH  13  14
ENDBRANCH  12  13
ENDBRANCH  11  12
ENDBRANCH   1  11
TORSDOF 6
ENDMDL
MODEL      460
REMARK  Name = ZINC000379546399
REMARK                            x       y       z     vdW  Elec       q    Type
REMARK                         _______ _______ _______ _____ _____    ______ ____
ROOT
ATOM      1  N   LIG    1        4.039  -4.159   2.305  0.00  0.00    -0.510 N 
ATOM      2  H   LIG    1        4.796  -3.496   2.384  0.00  0.00    +0.430 HD
ATOM      3  H   LIG    1        4.128  -4.669   1.439  0.00  0.00    +0.430 HD
ENDROOT
BRANCH   1   4
ATOM      4  C   LIG    1        4.090  -5.097   3.434  0.00  0.00    +0.170 C 
ATOM      5  C   LIG    1        4.134  -4.319   4.765  0.00  0.00    +0.050 C 
ATOM      6  C   LIG    1        5.081  -5.155   5.662  0.00  0.00    +0.050 C 
ATOM      7  C   LIG    1        6.165  -5.631   4.663  0.00  0.00    +0.050 C 
ATOM      8  C   LIG    1        5.380  -5.932   3.368  0.00  0.00    -0.080 C 
ATOM      9  C   LIG    1        6.208  -5.523   2.147  0.00  0.00    +0.030 C 
ATOM     10  C   LIG    1        5.040  -7.422   3.295  0.00  0.00    +0.060 C 
ENDBRANCH   1   4
BRANCH   1  11
ATOM     11  C   LIG    1        2.757  -3.441   2.321  0.00  0.00    +0.250 C 
BRANCH  11  12
ATOM     12  C   LIG    1        2.705  -2.464   1.145  0.00  0.00    +0.030 C 
BRANCH  12  13
ATOM     13  C   LIG    1        1.370  -1.717   1.161  0.00  0.00    +0.050 C 
BRANCH  13  14
ATOM     14  C   LIG    1        1.317  -0.740  -0.015  0.00  0.00    +0.050 C 
BRANCH  14  16
ATOM     15  C   LIG    1       -0.016   1.306   0.009  0.00  0.00    +0.020 C 
ATOM     16  C   LIG    1        0.002  -0.004   0.002  0.00  0.00    -0.060 C 
ENDBRANCH  14  16
ENDBRANCH  13  14
ENDBRANCH  12  13
ENDBRANCH  11  12
ENDBRANCH   1  11
TORSDOF 6
ENDMDL
MODEL      461
REMARK  Name = ZINC000379576654
REMARK                            x       y       z     vdW  Elec       q    Type
REMARK                         _______ _______ _______ _____ _____    ______ ____
ROOT
ATOM      1  N   LIG    1        1.361  -0.966   2.424  0.00  0.00    -0.510 N 
ATOM      2  H   LIG    1        0.559  -0.353   2.445  0.00  0.00    +0.420 HD
ATOM      3  H   LIG    1        2.204  -0.417   2.494  0.00  0.00    +0.420 HD
ENDROOT
BRANCH   1   4
ATOM      4  C   LIG    1        1.370  -1.717   1.161  0.00  0.00    +0.170 C 
ATOM      5  C   LIG    1        2.649  -2.552   1.074  0.00  0.00    +0.090 C 
BRANCH   4   6
ATOM      6  C   LIG    1        1.317  -0.740  -0.015  0.00  0.00    +0.100 C 
BRANCH   6   8
ATOM      7  C   LIG    1       -0.016   1.306   0.009  0.00  0.00    +0.060 C 
ATOM      8  C   LIG    1        0.002  -0.004   0.002  0.00  0.00    -0.090 C 
ENDBRANCH   6   8
ENDBRANCH   4   6
ENDBRANCH   1   4
BRANCH   1   9
ATOM      9  C   LIG    1        1.290  -1.904   3.552  0.00  0.00    +0.270 C 
BRANCH   9  10
ATOM     10  C   LIG    1        1.281  -1.121   4.866  0.00  0.00    -0.080 C 
BRANCH  10  11
ATOM     11  C   LIG    1        1.207  -2.098   6.041  0.00  0.00    +0.050 C 
ATOM     12  C   LIG    1        1.198  -1.316   7.356  0.00  0.00    +0.030 C 
ENDBRANCH  10  11
BRANCH  10  13
ATOM     13  C   LIG    1        0.065  -0.193   4.898  0.00  0.00    +0.030 C 
ATOM     14  C   LIG    1       -1.215  -1.024   4.791  0.00  0.00    +0.020 C 
ENDBRANCH  10  13
BRANCH  10  15
ATOM     15  C   LIG    1        2.560  -0.289   4.974  0.00  0.00    +0.030 C 
ATOM     16  C   LIG    1        3.776  -1.218   4.942  0.00  0.00    +0.020 C 
ENDBRANCH  10  15
ENDBRANCH   9  10
ENDBRANCH   1   9
TORSDOF 8
ENDMDL
MODEL      462
REMARK  Name = ZINC000379575755
REMARK                            x       y       z     vdW  Elec       q    Type
REMARK                         _______ _______ _______ _____ _____    ______ ____
ROOT
ATOM      1  N   LIG    1       -1.391  -0.822  -2.437  0.00  0.00    -0.510 N 
ATOM      2  H   LIG    1       -0.628  -0.163  -2.465  0.00  0.00    +0.420 HD
ATOM      3  H   LIG    1       -2.263  -0.323  -2.337  0.00  0.00    +0.420 HD
ENDROOT
BRANCH   1   4
ATOM      4  C   LIG    1       -1.413  -1.599  -3.683  0.00  0.00    +0.170 C 
ATOM      5  C   LIG    1       -0.047  -2.254  -3.900  0.00  0.00    +0.090 C 
BRANCH   4   6
ATOM      6  C   LIG    1       -1.725  -0.670  -4.858  0.00  0.00    -0.020 C 
ATOM      7  C   LIG    1       -1.973  -1.491  -6.148  0.00  0.00    +0.050 C 
ATOM      8  C   LIG    1       -2.831  -0.529  -7.006  0.00  0.00    +0.020 C 
ATOM      9  C   LIG    1       -3.759   0.162  -5.987  0.00  0.00    +0.020 C 
ATOM     10  C   LIG    1       -3.056   0.072  -4.621  0.00  0.00    +0.000 C 
ENDBRANCH   4   6
ENDBRANCH   1   4
BRANCH   1  11
ATOM     11  C   LIG    1       -1.213  -1.730  -1.297  0.00  0.00    +0.170 C 
BRANCH  11  12
ATOM     12  C   LIG    1       -2.446  -2.626  -1.161  0.00  0.00    +0.030 C 
ATOM     13  C   LIG    1       -2.218  -3.640  -0.037  0.00  0.00    +0.060 C 
ENDBRANCH  11  12
BRANCH  11  14
ATOM     14  C   LIG    1       -1.033  -0.912  -0.016  0.00  0.00    +0.090 C 
BRANCH  14  16
ATOM     15  C   LIG    1        0.228   1.177   0.066  0.00  0.00    +0.060 C 
ATOM     16  C   LIG    1        0.247  -0.122  -0.100  0.00  0.00    -0.090 C 
ENDBRANCH  14  16
ENDBRANCH  11  14
ENDBRANCH   1  11
TORSDOF 6
ENDMDL
MODEL      463
REMARK  Name = ZINC000379574417
REMARK                            x       y       z     vdW  Elec       q    Type
REMARK                         _______ _______ _______ _____ _____    ______ ____
ROOT
ATOM      1  N   LIG    1       -0.278  -2.723  -1.082  0.00  0.00    -0.510 N 
ATOM      2  H   LIG    1       -0.072  -3.308  -0.286  0.00  0.00    +0.430 HD
ATOM      3  H   LIG    1        0.406  -1.984  -1.143  0.00  0.00    +0.420 HD
ENDROOT
BRANCH   1   4
ATOM      4  C   LIG    1       -0.237  -3.532  -2.307  0.00  0.00    +0.160 C 
ATOM      5  C   LIG    1        0.328  -2.712  -3.435  0.00  0.00    +0.020 C 
ATOM      6  C   LIG    1       -0.304  -3.065  -4.795  0.00  0.00    +0.030 C 
ATOM      7  C   LIG    1       -0.492  -4.582  -4.990  0.00  0.00    +0.000 C 
ATOM      8  C   LIG    1        0.690  -5.376  -4.502  0.00  0.00    +0.020 C 
ATOM      9  C   LIG    1        0.416  -5.819  -3.050  0.00  0.00    +0.020 C 
ATOM     10  C   LIG    1        0.674  -4.757  -2.089  0.00  0.00    +0.040 C 
ENDBRANCH   1   4
BRANCH   1  11
ATOM     11  C   LIG    1       -1.617  -2.138  -0.926  0.00  0.00    +0.170 C 
BRANCH  11  12
ATOM     12  C   LIG    1       -1.911  -1.215  -2.110  0.00  0.00    +0.040 C 
ATOM     13  C   LIG    1       -0.972  -0.008  -2.062  0.00  0.00    +0.040 C 
ENDBRANCH  11  12
BRANCH  11  14
ATOM     14  C   LIG    1       -2.660  -3.257  -0.880  0.00  0.00    +0.100 C 
BRANCH  14  16
ATOM     15  C   LIG    1       -3.324  -4.377   1.185  0.00  0.00    +0.090 C 
ATOM     16  C   LIG    1       -2.384  -4.152   0.300  0.00  0.00    -0.110 C 
ENDBRANCH  14  16
ENDBRANCH  11  14
ENDBRANCH   1  11
TORSDOF 5
ENDMDL
MODEL      464
REMARK  Name = ZINC000379570847
REMARK                            x       y       z     vdW  Elec       q    Type
REMARK                         _______ _______ _______ _____ _____    ______ ____
ROOT
ATOM      1  N   LIG    1        1.383  -0.997   2.579  0.00  0.00    -0.500 N 
ATOM      2  H   LIG    1        0.575  -0.392   2.594  0.00  0.00    +0.420 HD
ATOM      3  H   LIG    1        2.213  -0.455   2.769  0.00  0.00    +0.420 HD
ENDROOT
BRANCH   1   4
ATOM      4  C   LIG    1        1.234  -2.039   3.603  0.00  0.00    +0.150 C 
ATOM      5  C   LIG    1        2.480  -2.928   3.612  0.00  0.00    +0.080 C 
BRANCH   4   6
ATOM      6  C   LIG    1        1.065  -1.385   4.976  0.00  0.00    +0.050 C 
BRANCH   6   7
ATOM      7  C   LIG    1       -0.246  -0.597   5.007  0.00  0.00    +0.010 C 
BRANCH   7   8
ATOM      8  C   LIG    1       -0.416   0.058   6.379  0.00  0.00    -0.020 C 
ATOM      9  C   LIG    1       -1.782   0.742   6.453  0.00  0.00    +0.030 C 
ATOM     10  C   LIG    1        0.687   1.098   6.588  0.00  0.00    +0.000 C 
ENDBRANCH   7   8
ENDBRANCH   6   7
ENDBRANCH   4   6
ENDBRANCH   1   4
BRANCH   1  11
ATOM     11  C   LIG    1        1.500  -1.624   1.256  0.00  0.00    +0.160 C 
BRANCH  11  12
ATOM     12  C   LIG    1        1.946  -0.577   0.233  0.00  0.00    +0.050 C 
ATOM     13  C   LIG    1        3.336  -0.059   0.605  0.00  0.00    +0.040 C 
ENDBRANCH  11  12
BRANCH  11  14
ATOM     14  C   LIG    1        0.144  -2.197   0.841  0.00  0.00    +0.100 C 
BRANCH  14  16
ATOM     15  C   LIG    1       -1.345  -3.411   2.348  0.00  0.00    +0.050 C 
ATOM     16  C   LIG    1       -0.195  -3.373   1.722  0.00  0.00    -0.060 C 
ENDBRANCH  14  16
ENDBRANCH  11  14
ENDBRANCH   1  11
TORSDOF 8
ENDMDL
MODEL      465
REMARK  Name = ZINC000379570845
REMARK                            x       y       z     vdW  Elec       q    Type
REMARK                         _______ _______ _______ _____ _____    ______ ____
ROOT
ATOM      1  N   LIG    1        1.480  -0.841   2.404  0.00  0.00    -0.510 N 
ATOM      2  H   LIG    1        0.718  -0.180   2.430  0.00  0.00    +0.420 HD
ATOM      3  H   LIG    1        2.353  -0.345   2.309  0.00  0.00    +0.420 HD
ENDROOT
BRANCH   1   4
ATOM      4  C   LIG    1        1.493  -1.622   3.648  0.00  0.00    +0.160 C 
ATOM      5  C   LIG    1        0.122  -2.269   3.858  0.00  0.00    +0.090 C 
BRANCH   4   6
ATOM      6  C   LIG    1        1.807  -0.699   4.827  0.00  0.00    +0.060 C 
BRANCH   6   7
ATOM      7  C   LIG    1        3.228  -0.149   4.679  0.00  0.00    +0.010 C 
BRANCH   7   8
ATOM      8  C   LIG    1        3.542   0.774   5.857  0.00  0.00    -0.020 C 
ATOM      9  C   LIG    1        4.913   1.421   5.647  0.00  0.00    +0.020 C 
ATOM     10  C   LIG    1        3.556  -0.039   7.153  0.00  0.00    +0.020 C 
ENDBRANCH   7   8
ENDBRANCH   6   7
ENDBRANCH   4   6
ENDBRANCH   1   4
BRANCH   1  11
ATOM     11  C   LIG    1        1.304  -1.746   1.260  0.00  0.00    +0.160 C 
BRANCH  11  12
ATOM     12  C   LIG    1        2.534  -2.647   1.129  0.00  0.00    +0.030 C 
ATOM     13  C   LIG    1        2.308  -3.658   0.003  0.00  0.00    +0.060 C 
ENDBRANCH  11  12
BRANCH  11  14
ATOM     14  C   LIG    1        1.137  -0.923  -0.020  0.00  0.00    +0.090 C 
BRANCH  14  16
ATOM     15  C   LIG    1       -0.113   1.173  -0.105  0.00  0.00    +0.060 C 
ATOM     16  C   LIG    1       -0.140  -0.127   0.058  0.00  0.00    -0.090 C 
ENDBRANCH  14  16
ENDBRANCH  11  14
ENDBRANCH   1  11
TORSDOF 8
ENDMDL
MODEL      466
REMARK  Name = ZINC000379574210
REMARK                            x       y       z     vdW  Elec       q    Type
REMARK                         _______ _______ _______ _____ _____    ______ ____
ROOT
ATOM      1  N   LIG    1        2.874  -4.063   1.754  0.00  0.00    -0.510 N 
ATOM      2  H   LIG    1        2.247  -4.853   1.800  0.00  0.00    +0.420 HD
ATOM      3  H   LIG    1        2.670  -3.427   2.509  0.00  0.00    +0.420 HD
ENDROOT
BRANCH   1   4
ATOM      4  C   LIG    1        2.698  -3.372   0.470  0.00  0.00    +0.160 C 
ATOM      5  C   LIG    1        2.860  -4.374  -0.675  0.00  0.00    +0.090 C 
BRANCH   4   6
ATOM      6  C   LIG    1        1.301  -2.752   0.412  0.00  0.00    -0.010 C 
ATOM      7  C   LIG    1        1.139  -1.750   1.557  0.00  0.00    +0.040 C 
BRANCH   6   8
ATOM      8  C   LIG    1        1.117  -2.032  -0.926  0.00  0.00    +0.080 C 
BRANCH   8  10
ATOM      9  C   LIG    1       -0.525  -0.259  -1.272  0.00  0.00    +0.030 C 
ATOM     10  C   LIG    1       -0.298  -1.527  -1.035  0.00  0.00    -0.060 C 
ENDBRANCH   8  10
ENDBRANCH   6   8
ENDBRANCH   4   6
ENDBRANCH   1   4
BRANCH   1  11
ATOM     11  C   LIG    1        4.261  -4.533   1.871  0.00  0.00    +0.170 C 
BRANCH  11  12
ATOM     12  C   LIG    1        5.137  -3.404   2.419  0.00  0.00    +0.050 C 
ATOM     13  C   LIG    1        5.200  -2.266   1.398  0.00  0.00    +0.040 C 
ENDBRANCH  11  12
BRANCH  11  14
ATOM     14  C   LIG    1        4.316  -5.729   2.824  0.00  0.00    +0.090 C 
BRANCH  14  15
ATOM     15  C   LIG    1        3.554  -6.883   2.225  0.00  0.00    -0.110 C 
ATOM     16  C   LIG    1        4.140  -8.044   2.069  0.00  0.00    +0.090 C 
ENDBRANCH  14  15
ENDBRANCH  11  14
ENDBRANCH   1  11
TORSDOF 8
ENDMDL
MODEL      467
REMARK  Name = ZINC000379574212
REMARK                            x       y       z     vdW  Elec       q    Type
REMARK                         _______ _______ _______ _____ _____    ______ ____
ROOT
ATOM      1  N   LIG    1        2.931  -3.530   2.671  0.00  0.00    -0.500 N 
ATOM      2  H   LIG    1        2.251  -4.271   2.752  0.00  0.00    +0.420 HD
ATOM      3  H   LIG    1        3.029  -3.066   3.561  0.00  0.00    +0.420 HD
ENDROOT
BRANCH   1   4
ATOM      4  C   LIG    1        2.484  -2.563   1.660  0.00  0.00    +0.160 C 
ATOM      5  C   LIG    1        3.484  -1.407   1.583  0.00  0.00    +0.090 C 
BRANCH   4   6
ATOM      6  C   LIG    1        1.107  -2.021   2.047  0.00  0.00    -0.010 C 
ATOM      7  C   LIG    1        1.218  -1.224   3.348  0.00  0.00    +0.050 C 
BRANCH   6   8
ATOM      8  C   LIG    1        0.586  -1.110   0.933  0.00  0.00    +0.080 C 
BRANCH   8  10
ATOM      9  C   LIG    1       -1.118   0.601   1.296  0.00  0.00    +0.030 C 
ATOM     10  C   LIG    1       -0.820  -0.674   1.256  0.00  0.00    -0.060 C 
ENDBRANCH   8  10
ENDBRANCH   6   8
ENDBRANCH   4   6
ENDBRANCH   1   4
BRANCH   1  11
ATOM     11  C   LIG    1        4.226  -4.096   2.269  0.00  0.00    +0.160 C 
BRANCH  11  12
ATOM     12  C   LIG    1        4.755  -5.001   3.383  0.00  0.00    +0.050 C 
ATOM     13  C   LIG    1        5.037  -4.162   4.631  0.00  0.00    +0.030 C 
ENDBRANCH  11  12
BRANCH  11  14
ATOM     14  C   LIG    1        4.050  -4.914   0.988  0.00  0.00    +0.090 C 
BRANCH  14  15
ATOM     15  C   LIG    1        4.141  -4.001  -0.207  0.00  0.00    -0.100 C 
ATOM     16  C   LIG    1        5.002  -4.254  -1.161  0.00  0.00    +0.080 C 
ENDBRANCH  14  15
ENDBRANCH  11  14
ENDBRANCH   1  11
TORSDOF 8
ENDMDL
MODEL      468
REMARK  Name = ZINC000379570848
REMARK                            x       y       z     vdW  Elec       q    Type
REMARK                         _______ _______ _______ _____ _____    ______ ____
ROOT
ATOM      1  N   LIG    1        0.180  -2.733   1.131  0.00  0.00    -0.510 N 
ATOM      2  H   LIG    1        0.265  -3.423   0.400  0.00  0.00    +0.420 HD
ATOM      3  H   LIG    1       -0.618  -2.143   0.946  0.00  0.00    +0.420 HD
ENDROOT
BRANCH   1   4
ATOM      4  C   LIG    1        0.001  -3.409   2.423  0.00  0.00    +0.160 C 
ATOM      5  C   LIG    1       -0.271  -2.367   3.510  0.00  0.00    +0.090 C 
BRANCH   4   6
ATOM      6  C   LIG    1       -1.182  -4.375   2.334  0.00  0.00    +0.050 C 
BRANCH   6   7
ATOM      7  C   LIG    1       -0.857  -5.488   1.337  0.00  0.00    +0.010 C 
BRANCH   7   8
ATOM      8  C   LIG    1       -2.040  -6.454   1.248  0.00  0.00    -0.020 C 
ATOM      9  C   LIG    1       -1.669  -7.634   0.347  0.00  0.00    +0.030 C 
ATOM     10  C   LIG    1       -3.251  -5.725   0.661  0.00  0.00    +0.000 C 
ENDBRANCH   7   8
ENDBRANCH   6   7
ENDBRANCH   4   6
ENDBRANCH   1   4
BRANCH   1  11
ATOM     11  C   LIG    1        1.397  -1.911   1.172  0.00  0.00    +0.170 C 
BRANCH  11  12
ATOM     12  C   LIG    1        2.621  -2.819   1.313  0.00  0.00    +0.030 C 
ATOM     13  C   LIG    1        3.874  -1.960   1.498  0.00  0.00    +0.060 C 
ENDBRANCH  11  12
BRANCH  11  14
ATOM     14  C   LIG    1        1.509  -1.101  -0.121  0.00  0.00    +0.100 C 
BRANCH  14  16
ATOM     15  C   LIG    1        0.612   1.157  -0.362  0.00  0.00    +0.090 C 
ATOM     16  C   LIG    1        0.368  -0.119  -0.199  0.00  0.00    -0.110 C 
ENDBRANCH  14  16
ENDBRANCH  11  14
ENDBRANCH   1  11
TORSDOF 8
ENDMDL
MODEL      469
REMARK  Name = ZINC000379574416
REMARK                            x       y       z     vdW  Elec       q    Type
REMARK                         _______ _______ _______ _____ _____    ______ ____
ROOT
ATOM      1  N   LIG    1       -1.332  -1.123  -2.648  0.00  0.00    -0.500 N 
ATOM      2  H   LIG    1       -0.525  -0.520  -2.703  0.00  0.00    +0.420 HD
ATOM      3  H   LIG    1       -2.168  -0.581  -2.812  0.00  0.00    +0.420 HD
ENDROOT
BRANCH   1   4
ATOM      4  C   LIG    1       -1.226  -2.177  -3.665  0.00  0.00    +0.160 C 
ATOM      5  C   LIG    1       -2.504  -2.971  -3.707  0.00  0.00    +0.030 C 
ATOM      6  C   LIG    1       -2.264  -4.457  -4.035  0.00  0.00    +0.030 C 
ATOM      7  C   LIG    1       -1.217  -4.663  -5.145  0.00  0.00    +0.000 C 
ATOM      8  C   LIG    1       -1.372  -3.679  -6.273  0.00  0.00    +0.020 C 
ATOM      9  C   LIG    1       -0.438  -2.480  -6.010  0.00  0.00    +0.020 C 
ATOM     10  C   LIG    1       -1.000  -1.540  -5.051  0.00  0.00    +0.040 C 
ENDBRANCH   1   4
BRANCH   1  11
ATOM     11  C   LIG    1       -1.397  -1.734  -1.314  0.00  0.00    +0.160 C 
BRANCH  11  12
ATOM     12  C   LIG    1       -1.904  -0.702  -0.305  0.00  0.00    +0.050 C 
ATOM     13  C   LIG    1       -3.328  -0.283  -0.674  0.00  0.00    +0.040 C 
ENDBRANCH  11  12
BRANCH  11  14
ATOM     14  C   LIG    1       -0.003  -2.209  -0.902  0.00  0.00    +0.100 C 
BRANCH  14  16
ATOM     15  C   LIG    1        1.567  -3.290  -2.428  0.00  0.00    +0.060 C 
ATOM     16  C   LIG    1        0.423  -3.348  -1.792  0.00  0.00    -0.070 C 
ENDBRANCH  14  16
ENDBRANCH  11  14
ENDBRANCH   1  11
TORSDOF 5
ENDMDL
MODEL      470
REMARK  Name = ZINC000379575757
REMARK                            x       y       z     vdW  Elec       q    Type
REMARK                         _______ _______ _______ _____ _____    ______ ____
ROOT
ATOM      1  N   LIG    1       -1.350  -1.010  -2.586  0.00  0.00    -0.500 N 
ATOM      2  H   LIG    1       -0.559  -0.383  -2.595  0.00  0.00    +0.420 HD
ATOM      3  H   LIG    1       -2.194  -0.488  -2.770  0.00  0.00    +0.420 HD
ENDROOT
BRANCH   1   4
ATOM      4  C   LIG    1       -1.173  -2.037  -3.621  0.00  0.00    +0.160 C 
ATOM      5  C   LIG    1       -2.395  -2.958  -3.639  0.00  0.00    +0.090 C 
BRANCH   4   6
ATOM      6  C   LIG    1       -1.022  -1.364  -4.987  0.00  0.00    -0.010 C 
ATOM      7  C   LIG    1        0.281  -0.528  -5.037  0.00  0.00    +0.010 C 
ATOM      8  C   LIG    1        0.579  -0.450  -6.555  0.00  0.00    +0.030 C 
ATOM      9  C   LIG    1        0.183  -1.842  -7.090  0.00  0.00    +0.010 C 
ATOM     10  C   LIG    1       -0.835  -2.423  -6.092  0.00  0.00    +0.040 C 
ENDBRANCH   4   6
ENDBRANCH   1   4
BRANCH   1  11
ATOM     11  C   LIG    1       -1.449  -1.653  -1.269  0.00  0.00    +0.160 C 
BRANCH  11  12
ATOM     12  C   LIG    1       -1.925  -0.630  -0.236  0.00  0.00    +0.050 C 
ATOM     13  C   LIG    1       -3.330  -0.148  -0.605  0.00  0.00    +0.040 C 
ENDBRANCH  11  12
BRANCH  11  14
ATOM     14  C   LIG    1       -0.077  -2.191  -0.859  0.00  0.00    +0.100 C 
BRANCH  14  16
ATOM     15  C   LIG    1        1.446  -3.348  -2.377  0.00  0.00    +0.060 C 
ATOM     16  C   LIG    1        0.296  -3.348  -1.750  0.00  0.00    -0.060 C 
ENDBRANCH  14  16
ENDBRANCH  11  14
ENDBRANCH   1  11
TORSDOF 6
ENDMDL
MODEL      471
REMARK  Name = ZINC000379575762
REMARK                            x       y       z     vdW  Elec       q    Type
REMARK                         _______ _______ _______ _____ _____    ______ ____
ROOT
ATOM      1  N   LIG    1       -0.295  -2.642  -1.097  0.00  0.00    -0.510 N 
ATOM      2  H   LIG    1       -0.713  -3.058  -0.278  0.00  0.00    +0.420 HD
ATOM      3  H   LIG    1        0.627  -2.302  -0.869  0.00  0.00    +0.430 HD
ENDROOT
BRANCH   1   4
ATOM      4  C   LIG    1       -0.196  -3.650  -2.161  0.00  0.00    +0.170 C 
ATOM      5  C   LIG    1       -1.562  -4.307  -2.371  0.00  0.00    +0.090 C 
BRANCH   4   6
ATOM      6  C   LIG    1        0.826  -4.715  -1.761  0.00  0.00    -0.020 C 
ATOM      7  C   LIG    1        0.286  -5.572  -0.590  0.00  0.00    +0.010 C 
ATOM      8  C   LIG    1        1.092  -6.888  -0.728  0.00  0.00    +0.030 C 
ATOM      9  C   LIG    1        1.198  -7.108  -2.251  0.00  0.00    +0.010 C 
ATOM     10  C   LIG    1        1.029  -5.727  -2.908  0.00  0.00    +0.040 C 
ENDBRANCH   4   6
ENDBRANCH   1   4
BRANCH   1  11
ATOM     11  C   LIG    1       -1.129  -1.524  -1.558  0.00  0.00    +0.170 C 
BRANCH  11  12
ATOM     12  C   LIG    1       -0.824  -1.232  -3.028  0.00  0.00    +0.050 C 
ATOM     13  C   LIG    1        0.638  -0.804  -3.170  0.00  0.00    +0.020 C 
ENDBRANCH  11  12
BRANCH  11  14
ATOM     14  C   LIG    1       -2.606  -1.894  -1.407  0.00  0.00    +0.090 C 
BRANCH  14  16
ATOM     15  C   LIG    1       -3.873  -1.520   0.646  0.00  0.00    +0.090 C 
ATOM     16  C   LIG    1       -2.910  -2.171   0.043  0.00  0.00    -0.110 C 
ENDBRANCH  14  16
ENDBRANCH  11  14
ENDBRANCH   1  11
TORSDOF 6
ENDMDL
MODEL      472
REMARK  Name = ZINC000379575754
REMARK                            x       y       z     vdW  Elec       q    Type
REMARK                         _______ _______ _______ _____ _____    ______ ____
ROOT
ATOM      1  N   LIG    1       -0.086  -2.718  -1.153  0.00  0.00    -0.510 N 
ATOM      2  H   LIG    1       -0.147  -3.423  -0.433  0.00  0.00    +0.420 HD
ATOM      3  H   LIG    1        0.688  -2.102  -0.955  0.00  0.00    +0.420 HD
ENDROOT
BRANCH   1   4
ATOM      4  C   LIG    1        0.124  -3.365  -2.455  0.00  0.00    +0.170 C 
ATOM      5  C   LIG    1        0.363  -2.296  -3.523  0.00  0.00    +0.090 C 
BRANCH   4   6
ATOM      6  C   LIG    1        1.342  -4.288  -2.376  0.00  0.00    -0.020 C 
ATOM      7  C   LIG    1        1.074  -5.457  -1.396  0.00  0.00    +0.010 C 
ATOM      8  C   LIG    1        2.063  -6.545  -1.882  0.00  0.00    +0.030 C 
ATOM      9  C   LIG    1        2.043  -6.415  -3.419  0.00  0.00    +0.010 C 
ATOM     10  C   LIG    1        1.584  -4.980  -3.733  0.00  0.00    +0.040 C 
ENDBRANCH   4   6
ENDBRANCH   1   4
BRANCH   1  11
ATOM     11  C   LIG    1       -1.333  -1.943  -1.187  0.00  0.00    +0.170 C 
BRANCH  11  12
ATOM     12  C   LIG    1       -2.520  -2.894  -1.349  0.00  0.00    +0.030 C 
ATOM     13  C   LIG    1       -3.804  -2.080  -1.526  0.00  0.00    +0.060 C 
ENDBRANCH  11  12
BRANCH  11  14
ATOM     14  C   LIG    1       -1.482  -1.159   0.119  0.00  0.00    +0.100 C 
BRANCH  14  16
ATOM     15  C   LIG    1       -0.672   1.126   0.404  0.00  0.00    +0.090 C 
ATOM     16  C   LIG    1       -0.379  -0.137   0.220  0.00  0.00    -0.110 C 
ENDBRANCH  14  16
ENDBRANCH  11  14
ENDBRANCH   1  11
TORSDOF 6
ENDMDL
MODEL      473
REMARK  Name = ZINC000379576656
REMARK                            x       y       z     vdW  Elec       q    Type
REMARK                         _______ _______ _______ _____ _____    ______ ____
ROOT
ATOM      1  N   LIG    1        0.343  -2.753   0.984  0.00  0.00    -0.510 N 
ATOM      2  H   LIG    1        0.560  -3.305   0.168  0.00  0.00    +0.420 HD
ATOM      3  H   LIG    1       -0.558  -2.315   0.864  0.00  0.00    +0.420 HD
ENDROOT
BRANCH   1   4
ATOM      4  C   LIG    1        1.370  -1.717   1.161  0.00  0.00    +0.170 C 
ATOM      5  C   LIG    1        2.751  -2.373   1.218  0.00  0.00    +0.090 C 
BRANCH   4   6
ATOM      6  C   LIG    1        1.317  -0.740  -0.015  0.00  0.00    +0.100 C 
BRANCH   6   8
ATOM      7  C   LIG    1       -0.016   1.306   0.009  0.00  0.00    +0.090 C 
ATOM      8  C   LIG    1        0.002  -0.004   0.002  0.00  0.00    -0.110 C 
ENDBRANCH   6   8
ENDBRANCH   4   6
ENDBRANCH   1   4
BRANCH   1   9
ATOM      9  C   LIG    1        0.312  -3.620   2.168  0.00  0.00    +0.270 C 
BRANCH   9  10
ATOM     10  C   LIG    1       -0.757  -4.699   1.983  0.00  0.00    -0.080 C 
BRANCH  10  11
ATOM     11  C   LIG    1       -0.789  -5.603   3.217  0.00  0.00    +0.050 C 
ATOM     12  C   LIG    1       -1.858  -6.681   3.032  0.00  0.00    +0.030 C 
ENDBRANCH  10  11
BRANCH  10  13
ATOM     13  C   LIG    1       -0.428  -5.536   0.746  0.00  0.00    +0.030 C 
ATOM     14  C   LIG    1        0.939  -6.199   0.928  0.00  0.00    +0.020 C 
ENDBRANCH  10  13
BRANCH  10  15
ATOM     15  C   LIG    1       -2.124  -4.036   1.802  0.00  0.00    +0.030 C 
ATOM     16  C   LIG    1       -2.453  -3.198   3.039  0.00  0.00    +0.020 C 
ENDBRANCH  10  15
ENDBRANCH   9  10
ENDBRANCH   1   9
TORSDOF 8
ENDMDL
MODEL      474
REMARK  Name = ZINC000379570846
REMARK                            x       y       z     vdW  Elec       q    Type
REMARK                         _______ _______ _______ _____ _____    ______ ____
ROOT
ATOM      1  N   LIG    1        0.316  -2.713   0.643  0.00  0.00    -0.500 N 
ATOM      2  H   LIG    1        0.513  -3.128  -0.256  0.00  0.00    +0.420 HD
ATOM      3  H   LIG    1       -0.551  -2.200   0.594  0.00  0.00    +0.420 HD
ENDROOT
BRANCH   1   4
ATOM      4  C   LIG    1        0.203  -3.772   1.655  0.00  0.00    +0.160 C 
ATOM      5  C   LIG    1        1.514  -4.556   1.722  0.00  0.00    +0.090 C 
BRANCH   4   6
ATOM      6  C   LIG    1       -0.939  -4.718   1.278  0.00  0.00    +0.050 C 
BRANCH   6   7
ATOM      7  C   LIG    1       -2.268  -3.962   1.332  0.00  0.00    +0.010 C 
BRANCH   7   8
ATOM      8  C   LIG    1       -3.409  -4.909   0.954  0.00  0.00    -0.020 C 
ATOM      9  C   LIG    1       -4.721  -4.124   0.887  0.00  0.00    +0.020 C 
ATOM     10  C   LIG    1       -3.527  -6.011   2.008  0.00  0.00    +0.020 C 
ENDBRANCH   7   8
ENDBRANCH   6   7
ENDBRANCH   4   6
ENDBRANCH   1   4
BRANCH   1  11
ATOM     11  C   LIG    1        1.406  -1.800   1.010  0.00  0.00    +0.160 C 
BRANCH  11  12
ATOM     12  C   LIG    1        1.663  -0.824  -0.140  0.00  0.00    +0.050 C 
ATOM     13  C   LIG    1        2.247  -1.584  -1.333  0.00  0.00    +0.030 C 
ENDBRANCH  11  12
BRANCH  11  14
ATOM     14  C   LIG    1        1.014  -1.017   2.265  0.00  0.00    +0.090 C 
BRANCH  14  16
ATOM     15  C   LIG    1        2.305  -1.364   4.308  0.00  0.00    +0.080 C 
ATOM     16  C   LIG    1        1.385  -1.812   3.490  0.00  0.00    -0.100 C 
ENDBRANCH  14  16
ENDBRANCH  11  14
ENDBRANCH   1  11
TORSDOF 8
ENDMDL
MODEL      475
REMARK  Name = ZINC000379574207
REMARK                            x       y       z     vdW  Elec       q    Type
REMARK                         _______ _______ _______ _____ _____    ______ ____
ROOT
ATOM      1  N   LIG    1        3.101  -3.851   1.920  0.00  0.00    -0.500 N 
ATOM      2  H   LIG    1        2.585  -4.718   1.897  0.00  0.00    +0.420 HD
ATOM      3  H   LIG    1        2.730  -3.259   2.648  0.00  0.00    +0.420 HD
ENDROOT
BRANCH   1   4
ATOM      4  C   LIG    1        2.977  -3.172   0.624  0.00  0.00    +0.160 C 
ATOM      5  C   LIG    1        3.391  -4.129  -0.495  0.00  0.00    +0.080 C 
BRANCH   4   6
ATOM      6  C   LIG    1        1.525  -2.738   0.412  0.00  0.00    -0.010 C 
ATOM      7  C   LIG    1        0.617  -3.969   0.432  0.00  0.00    +0.050 C 
BRANCH   6   8
ATOM      8  C   LIG    1        1.396  -2.030  -0.938  0.00  0.00    +0.080 C 
BRANCH   8  10
ATOM      9  C   LIG    1       -0.195  -0.225  -1.351  0.00  0.00    +0.030 C 
ATOM     10  C   LIG    1       -0.004  -1.495  -1.093  0.00  0.00    -0.070 C 
ENDBRANCH   8  10
ENDBRANCH   6   8
ENDBRANCH   4   6
ENDBRANCH   1   4
BRANCH   1  11
ATOM     11  C   LIG    1        4.517  -4.133   2.193  0.00  0.00    +0.170 C 
BRANCH  11  12
ATOM     12  C   LIG    1        5.167  -2.904   2.833  0.00  0.00    +0.050 C 
ATOM     13  C   LIG    1        5.189  -1.754   1.824  0.00  0.00    +0.030 C 
ENDBRANCH  11  12
BRANCH  11  14
ATOM     14  C   LIG    1        4.626  -5.324   3.147  0.00  0.00    +0.090 C 
BRANCH  14  15
ATOM     15  C   LIG    1        4.098  -6.561   2.468  0.00  0.00    -0.110 C 
ATOM     16  C   LIG    1        4.848  -7.631   2.380  0.00  0.00    +0.090 C 
ENDBRANCH  14  15
ENDBRANCH  11  14
ENDBRANCH   1  11
TORSDOF 8
ENDMDL
MODEL      476
REMARK  Name = ZINC000379574211
REMARK                            x       y       z     vdW  Elec       q    Type
REMARK                         _______ _______ _______ _____ _____    ______ ____
ROOT
ATOM      1  N   LIG    1        3.043  -3.174   2.949  0.00  0.00    -0.500 N 
ATOM      2  H   LIG    1        2.467  -3.997   3.050  0.00  0.00    +0.420 HD
ATOM      3  H   LIG    1        3.041  -2.654   3.814  0.00  0.00    +0.420 HD
ENDROOT
BRANCH   1   4
ATOM      4  C   LIG    1        2.508  -2.331   1.871  0.00  0.00    +0.160 C 
ATOM      5  C   LIG    1        3.357  -1.064   1.746  0.00  0.00    +0.080 C 
BRANCH   4   6
ATOM      6  C   LIG    1        1.063  -1.947   2.193  0.00  0.00    -0.010 C 
ATOM      7  C   LIG    1        0.214  -3.215   2.318  0.00  0.00    +0.040 C 
BRANCH   6   8
ATOM      8  C   LIG    1        0.506  -1.070   1.070  0.00  0.00    +0.070 C 
BRANCH   8  10
ATOM      9  C   LIG    1       -1.143   0.691   1.446  0.00  0.00    +0.030 C 
ATOM     10  C   LIG    1       -0.873  -0.591   1.443  0.00  0.00    -0.070 C 
ENDBRANCH   8  10
ENDBRANCH   6   8
ENDBRANCH   4   6
ENDBRANCH   1   4
BRANCH   1  11
ATOM     11  C   LIG    1        4.418  -3.574   2.622  0.00  0.00    +0.160 C 
BRANCH  11  12
ATOM     12  C   LIG    1        5.021  -4.339   3.802  0.00  0.00    +0.050 C 
ATOM     13  C   LIG    1        5.128  -3.408   5.011  0.00  0.00    +0.020 C 
ENDBRANCH  11  12
BRANCH  11  14
ATOM     14  C   LIG    1        4.406  -4.474   1.385  0.00  0.00    +0.090 C 
BRANCH  14  15
ATOM     15  C   LIG    1        4.408  -3.620   0.143  0.00  0.00    -0.100 C 
ATOM     16  C   LIG    1        5.328  -3.799  -0.773  0.00  0.00    +0.080 C 
ENDBRANCH  14  15
ENDBRANCH  11  14
ENDBRANCH   1  11
TORSDOF 8
ENDMDL
MODEL      477
REMARK  Name = ZINC000379584659
REMARK                            x       y       z     vdW  Elec       q    Type
REMARK                         _______ _______ _______ _____ _____    ______ ____
ROOT
ATOM      1  N   LIG    1       -1.605  -4.498  -2.188  0.00  0.00    -0.510 N 
ATOM      2  H   LIG    1       -1.807  -5.065  -1.378  0.00  0.00    +0.420 HD
ATOM      3  H   LIG    1       -0.716  -4.038  -2.063  0.00  0.00    +0.420 HD
ENDROOT
BRANCH   1   4
ATOM      4  C   LIG    1       -2.659  -3.489  -2.355  0.00  0.00    +0.160 C 
ATOM      5  C   LIG    1       -4.022  -4.181  -2.419  0.00  0.00    +0.090 C 
BRANCH   4   6
ATOM      6  C   LIG    1       -2.633  -2.524  -1.168  0.00  0.00    +0.050 C 
BRANCH   6   7
ATOM      7  C   LIG    1       -1.319  -1.741  -1.176  0.00  0.00    +0.010 C 
BRANCH   7   8
ATOM      8  C   LIG    1       -1.293  -0.775   0.010  0.00  0.00    +0.070 C 
BRANCH   8  10
ATOM      9  C   LIG    1       -0.016   1.306   0.009  0.00  0.00    +0.030 C 
ATOM     10  C   LIG    1        0.002  -0.004   0.002  0.00  0.00    -0.070 C 
ENDBRANCH   8  10
ENDBRANCH   7   8
ENDBRANCH   6   7
ENDBRANCH   4   6
ENDBRANCH   1   4
BRANCH   1  11
ATOM     11  C   LIG    1       -1.551  -5.352  -3.382  0.00  0.00    +0.160 C 
ATOM     12  C   LIG    1       -1.123  -4.514  -4.589  0.00  0.00    +0.080 C 
BRANCH  11  13
ATOM     13  C   LIG    1       -0.540  -6.479  -3.159  0.00  0.00    -0.020 C 
ATOM     14  C   LIG    1       -0.968  -7.316  -1.952  0.00  0.00    +0.040 C 
BRANCH  13  15
ATOM     15  C   LIG    1       -0.484  -7.368  -4.403  0.00  0.00    +0.030 C 
ATOM     16  C   LIG    1        0.614  -8.419  -4.229  0.00  0.00    +0.030 C 
ENDBRANCH  13  15
ENDBRANCH  11  13
ENDBRANCH   1  11
TORSDOF 8
ENDMDL
MODEL      478
REMARK  Name = ZINC000379581874
REMARK                            x       y       z     vdW  Elec       q    Type
REMARK                         _______ _______ _______ _____ _____    ______ ____
ROOT
ATOM      1  C   LIG    1        2.705  -2.464   1.145  0.00  0.00    +0.200 C 
ENDROOT
BRANCH   1   2
ATOM      2  C   LIG    1        2.708  -3.528   2.244  0.00  0.00    -0.080 C 
ATOM      3  C   LIG    1        1.489  -3.594   3.167  0.00  0.00    +0.050 C 
ATOM      4  C   LIG    1        1.711  -4.682   2.113  0.00  0.00    +0.070 C 
ENDBRANCH   1   2
BRANCH   1   5
ATOM      5  N   LIG    1        3.800  -1.514   1.380  0.00  0.00    -0.510 N 
ATOM      6  H   LIG    1        3.720  -1.132   2.310  0.00  0.00    +0.430 HD
ATOM      7  H   LIG    1        3.749  -0.767   0.704  0.00  0.00    +0.430 HD
BRANCH   5   8
ATOM      8  C   LIG    1        5.088  -2.208   1.245  0.00  0.00    +0.250 C 
BRANCH   8   9
ATOM      9  C   LIG    1        6.229  -1.219   1.490  0.00  0.00    +0.030 C 
BRANCH   9  10
ATOM     10  C   LIG    1        7.570  -1.942   1.350  0.00  0.00    +0.020 C 
BRANCH  10  11
ATOM     11  C   LIG    1        8.711  -0.952   1.595  0.00  0.00    +0.010 C 
ATOM     12  C   LIG    1       10.052  -1.675   1.455  0.00  0.00    +0.020 C 
ENDBRANCH  10  11
ENDBRANCH   9  10
ENDBRANCH   8   9
ENDBRANCH   5   8
ENDBRANCH   1   5
BRANCH   1  13
ATOM     13  C   LIG    1        1.370  -1.717   1.161  0.00  0.00    +0.060 C 
BRANCH  13  14
ATOM     14  C   LIG    1        1.317  -0.740  -0.015  0.00  0.00    +0.050 C 
BRANCH  14  16
ATOM     15  C   LIG    1       -0.016   1.306   0.009  0.00  0.00    +0.040 C 
ATOM     16  C   LIG    1        0.002  -0.004   0.002  0.00  0.00    -0.060 C 
ENDBRANCH  14  16
ENDBRANCH  13  14
ENDBRANCH   1  13
TORSDOF 9
ENDMDL
MODEL      479
REMARK  Name = ZINC000379581875
REMARK                            x       y       z     vdW  Elec       q    Type
REMARK                         _______ _______ _______ _____ _____    ______ ____
ROOT
ATOM      1  C   LIG    1        2.705  -2.464   1.145  0.00  0.00    +0.200 C 
ENDROOT
BRANCH   1   2
ATOM      2  C   LIG    1        2.810  -3.349   2.388  0.00  0.00    -0.080 C 
ATOM      3  C   LIG    1        4.075  -3.225   3.239  0.00  0.00    +0.050 C 
ATOM      4  C   LIG    1        2.749  -2.660   3.753  0.00  0.00    +0.070 C 
ENDBRANCH   1   2
BRANCH   1   5
ATOM      5  N   LIG    1        2.783  -3.301  -0.060  0.00  0.00    -0.510 N 
ATOM      6  H   LIG    1        2.631  -2.729  -0.877  0.00  0.00    +0.430 HD
ATOM      7  H   LIG    1        2.075  -4.019  -0.017  0.00  0.00    +0.430 HD
BRANCH   5   8
ATOM      8  C   LIG    1        4.110  -3.925  -0.138  0.00  0.00    +0.250 C 
BRANCH   8   9
ATOM      9  C   LIG    1        4.191  -4.796  -1.393  0.00  0.00    +0.030 C 
BRANCH   9  10
ATOM     10  C   LIG    1        5.574  -5.446  -1.474  0.00  0.00    +0.020 C 
BRANCH  10  11
ATOM     11  C   LIG    1        5.655  -6.318  -2.729  0.00  0.00    +0.010 C 
ATOM     12  C   LIG    1        7.038  -6.968  -2.810  0.00  0.00    +0.020 C 
ENDBRANCH  10  11
ENDBRANCH   9  10
ENDBRANCH   8   9
ENDBRANCH   5   8
ENDBRANCH   1   5
BRANCH   1  13
ATOM     13  C   LIG    1        1.370  -1.717   1.161  0.00  0.00    +0.060 C 
BRANCH  13  14
ATOM     14  C   LIG    1        1.317  -0.740  -0.015  0.00  0.00    +0.040 C 
BRANCH  14  16
ATOM     15  C   LIG    1       -0.016   1.306   0.009  0.00  0.00    +0.050 C 
ATOM     16  C   LIG    1        0.002  -0.004   0.002  0.00  0.00    -0.060 C 
ENDBRANCH  14  16
ENDBRANCH  13  14
ENDBRANCH   1  13
TORSDOF 9
ENDMDL
MODEL      480
REMARK  Name = ZINC000379584590
REMARK                            x       y       z     vdW  Elec       q    Type
REMARK                         _______ _______ _______ _____ _____    ______ ____
ROOT
ATOM      1  N   LIG    1       -0.158  -3.512   1.149  0.00  0.00    -0.500 N 
ATOM      2  H   LIG    1       -0.278  -4.460   0.825  0.00  0.00    +0.420 HD
ATOM      3  H   LIG    1       -1.054  -3.050   1.177  0.00  0.00    +0.420 HD
ENDROOT
BRANCH   1   4
ATOM      4  C   LIG    1        0.736  -2.790   0.234  0.00  0.00    +0.160 C 
BRANCH   4   5
ATOM      5  C   LIG    1        0.503  -3.277  -1.197  0.00  0.00    +0.050 C 
ATOM      6  C   LIG    1        0.973  -4.728  -1.325  0.00  0.00    +0.040 C 
ENDBRANCH   4   5
BRANCH   4   7
ATOM      7  C   LIG    1        0.446  -1.290   0.316  0.00  0.00    +0.090 C 
BRANCH   7   9
ATOM      8  C   LIG    1        2.096   0.155   1.390  0.00  0.00    +0.080 C 
ATOM      9  C   LIG    1        1.125  -0.713   1.532  0.00  0.00    -0.090 C 
ENDBRANCH   7   9
ENDBRANCH   4   7
ENDBRANCH   1   4
BRANCH   1  10
ATOM     10  C   LIG    1        0.428  -3.526   2.497  0.00  0.00    +0.160 C 
BRANCH  10  11
ATOM     11  C   LIG    1        1.770  -4.260   2.461  0.00  0.00    +0.040 C 
ATOM     12  C   LIG    1        2.905  -3.242   2.331  0.00  0.00    +0.040 C 
ENDBRANCH  10  11
BRANCH  10  13
ATOM     13  C   LIG    1       -0.521  -4.245   3.458  0.00  0.00    +0.050 C 
BRANCH  13  14
ATOM     14  C   LIG    1       -1.818  -3.443   3.589  0.00  0.00    -0.000 C 
BRANCH  14  15
ATOM     15  C   LIG    1       -2.767  -4.162   4.550  0.00  0.00    +0.010 C 
ATOM     16  C   LIG    1       -4.063  -3.361   4.681  0.00  0.00    +0.010 C 
ENDBRANCH  14  15
ENDBRANCH  13  14
ENDBRANCH  10  13
ENDBRANCH   1  10
TORSDOF 9
ENDMDL
MODEL      481
REMARK  Name = ZINC000379584660
REMARK                            x       y       z     vdW  Elec       q    Type
REMARK                         _______ _______ _______ _____ _____    ______ ____
ROOT
ATOM      1  N   LIG    1       -1.745  -4.503  -2.061  0.00  0.00    -0.510 N 
ATOM      2  H   LIG    1       -2.055  -5.001  -1.240  0.00  0.00    +0.420 HD
ATOM      3  H   LIG    1       -0.831  -4.112  -1.892  0.00  0.00    +0.420 HD
ENDROOT
BRANCH   1   4
ATOM      4  C   LIG    1       -2.692  -3.421  -2.364  0.00  0.00    +0.160 C 
ATOM      5  C   LIG    1       -3.418  -3.005  -1.083  0.00  0.00    +0.090 C 
BRANCH   4   6
ATOM      6  C   LIG    1       -1.930  -2.221  -2.930  0.00  0.00    +0.050 C 
BRANCH   6   7
ATOM      7  C   LIG    1       -1.348  -2.586  -4.298  0.00  0.00    -0.000 C 
BRANCH   7   8
ATOM      8  C   LIG    1       -0.689  -1.351  -4.917  0.00  0.00    +0.060 C 
BRANCH   8  10
ATOM      9  C   LIG    1       -0.463  -1.027  -7.326  0.00  0.00    +0.030 C 
ATOM     10  C   LIG    1       -0.116  -1.710  -6.264  0.00  0.00    -0.070 C 
ENDBRANCH   8  10
ENDBRANCH   7   8
ENDBRANCH   6   7
ENDBRANCH   4   6
ENDBRANCH   1   4
BRANCH   1  11
ATOM     11  C   LIG    1       -1.680  -5.429  -3.200  0.00  0.00    +0.160 C 
ATOM     12  C   LIG    1       -3.036  -6.113  -3.380  0.00  0.00    +0.090 C 
BRANCH  11  13
ATOM     13  C   LIG    1       -0.606  -6.487  -2.935  0.00  0.00    -0.010 C 
ATOM     14  C   LIG    1        0.750  -5.803  -2.756  0.00  0.00    +0.040 C 
BRANCH  13  15
ATOM     15  C   LIG    1       -0.538  -7.451  -4.121  0.00  0.00    +0.030 C 
ATOM     16  C   LIG    1        0.446  -8.579  -3.805  0.00  0.00    +0.030 C 
ENDBRANCH  13  15
ENDBRANCH  11  13
ENDBRANCH   1  11
TORSDOF 8
ENDMDL
MODEL      482
REMARK  Name = ZINC000379584591
REMARK                            x       y       z     vdW  Elec       q    Type
REMARK                         _______ _______ _______ _____ _____    ______ ____
ROOT
ATOM      1  N   LIG    1       -0.157  -2.953   1.797  0.00  0.00    -0.500 N 
ATOM      2  H   LIG    1       -1.032  -2.839   2.285  0.00  0.00    +0.420 HD
ATOM      3  H   LIG    1        0.462  -2.192   2.034  0.00  0.00    +0.420 HD
ENDROOT
BRANCH   1   4
ATOM      4  C   LIG    1       -0.399  -2.954   0.349  0.00  0.00    +0.160 C 
BRANCH   4   5
ATOM      5  C   LIG    1       -1.517  -1.963   0.018  0.00  0.00    +0.050 C 
ATOM      6  C   LIG    1       -2.834  -2.462   0.617  0.00  0.00    +0.040 C 
ENDBRANCH   4   5
BRANCH   4   7
ATOM      7  C   LIG    1        0.880  -2.541  -0.383  0.00  0.00    +0.090 C 
BRANCH   7   9
ATOM      8  C   LIG    1        2.074  -4.244  -1.663  0.00  0.00    +0.080 C 
ATOM      9  C   LIG    1        1.802  -3.728  -0.489  0.00  0.00    -0.090 C 
ENDBRANCH   7   9
ENDBRANCH   4   7
ENDBRANCH   1   4
BRANCH   1  10
ATOM     10  C   LIG    1        0.460  -4.227   2.191  0.00  0.00    +0.160 C 
BRANCH  10  11
ATOM     11  C   LIG    1        0.780  -4.198   3.687  0.00  0.00    +0.050 C 
ATOM     12  C   LIG    1        1.864  -3.151   3.956  0.00  0.00    +0.020 C 
ENDBRANCH  10  11
BRANCH  10  13
ATOM     13  C   LIG    1       -0.509  -5.375   1.899  0.00  0.00    +0.050 C 
BRANCH  13  14
ATOM     14  C   LIG    1       -0.180  -5.986   0.536  0.00  0.00    +0.020 C 
BRANCH  14  15
ATOM     15  C   LIG    1       -1.241  -7.027   0.174  0.00  0.00    +0.000 C 
ATOM     16  C   LIG    1       -0.912  -7.638  -1.189  0.00  0.00    +0.010 C 
ENDBRANCH  14  15
ENDBRANCH  13  14
ENDBRANCH  10  13
ENDBRANCH   1  10
TORSDOF 9
ENDMDL
MODEL      483
REMARK  Name = ZINC000379584661
REMARK                            x       y       z     vdW  Elec       q    Type
REMARK                         _______ _______ _______ _____ _____    ______ ____
ROOT
ATOM      1  N   LIG    1       -1.651  -4.583  -2.227  0.00  0.00    -0.510 N 
ATOM      2  H   LIG    1       -1.967  -5.137  -1.446  0.00  0.00    +0.430 HD
ATOM      3  H   LIG    1       -0.715  -4.250  -2.046  0.00  0.00    +0.420 HD
ENDROOT
BRANCH   1   4
ATOM      4  C   LIG    1       -2.551  -3.437  -2.411  0.00  0.00    +0.160 C 
ATOM      5  C   LIG    1       -3.990  -3.937  -2.558  0.00  0.00    +0.090 C 
BRANCH   4   6
ATOM      6  C   LIG    1       -2.454  -2.512  -1.197  0.00  0.00    +0.050 C 
BRANCH   6   7
ATOM      7  C   LIG    1       -1.048  -1.913  -1.122  0.00  0.00    +0.010 C 
BRANCH   7   8
ATOM      8  C   LIG    1       -0.952  -0.988   0.093  0.00  0.00    +0.070 C 
BRANCH   8  10
ATOM      9  C   LIG    1        0.591   0.901   0.212  0.00  0.00    +0.030 C 
ATOM     10  C   LIG    1        0.433  -0.399   0.167  0.00  0.00    -0.070 C 
ENDBRANCH   8  10
ENDBRANCH   7   8
ENDBRANCH   6   7
ENDBRANCH   4   6
ENDBRANCH   1   4
BRANCH   1  11
ATOM     11  C   LIG    1       -1.650  -5.406  -3.444  0.00  0.00    +0.160 C 
ATOM     12  C   LIG    1       -0.842  -6.681  -3.197  0.00  0.00    +0.090 C 
BRANCH  11  13
ATOM     13  C   LIG    1       -1.019  -4.617  -4.593  0.00  0.00    -0.020 C 
ATOM     14  C   LIG    1        0.456  -4.354  -4.282  0.00  0.00    +0.050 C 
BRANCH  13  15
ATOM     15  C   LIG    1       -1.131  -5.424  -5.888  0.00  0.00    +0.030 C 
ATOM     16  C   LIG    1       -0.613  -4.585  -7.058  0.00  0.00    +0.030 C 
ENDBRANCH  13  15
ENDBRANCH  11  13
ENDBRANCH   1  11
TORSDOF 8
ENDMDL
MODEL      484
REMARK  Name = ZINC000379584658
REMARK                            x       y       z     vdW  Elec       q    Type
REMARK                         _______ _______ _______ _____ _____    ______ ____
ROOT
ATOM      1  N   LIG    1       -1.605  -4.498  -2.188  0.00  0.00    -0.510 N 
ATOM      2  H   LIG    1       -1.807  -5.065  -1.378  0.00  0.00    +0.420 HD
ATOM      3  H   LIG    1       -0.716  -4.038  -2.063  0.00  0.00    +0.420 HD
ENDROOT
BRANCH   1   4
ATOM      4  C   LIG    1       -2.659  -3.489  -2.355  0.00  0.00    +0.160 C 
ATOM      5  C   LIG    1       -4.022  -4.181  -2.419  0.00  0.00    +0.090 C 
BRANCH   4   6
ATOM      6  C   LIG    1       -2.633  -2.524  -1.168  0.00  0.00    +0.050 C 
BRANCH   6   7
ATOM      7  C   LIG    1       -1.319  -1.741  -1.176  0.00  0.00    +0.010 C 
BRANCH   7   8
ATOM      8  C   LIG    1       -1.293  -0.775   0.010  0.00  0.00    +0.070 C 
BRANCH   8  10
ATOM      9  C   LIG    1       -0.016   1.306   0.009  0.00  0.00    +0.030 C 
ATOM     10  C   LIG    1        0.002  -0.004   0.002  0.00  0.00    -0.070 C 
ENDBRANCH   8  10
ENDBRANCH   7   8
ENDBRANCH   6   7
ENDBRANCH   4   6
ENDBRANCH   1   4
BRANCH   1  11
ATOM     11  C   LIG    1       -1.551  -5.352  -3.382  0.00  0.00    +0.160 C 
ATOM     12  C   LIG    1       -1.123  -4.514  -4.589  0.00  0.00    +0.080 C 
BRANCH  11  13
ATOM     13  C   LIG    1       -0.540  -6.479  -3.159  0.00  0.00    -0.020 C 
ATOM     14  C   LIG    1        0.843  -5.878  -2.898  0.00  0.00    +0.040 C 
BRANCH  13  15
ATOM     15  C   LIG    1       -0.484  -7.368  -4.403  0.00  0.00    +0.030 C 
ATOM     16  C   LIG    1        0.432  -8.563  -4.134  0.00  0.00    +0.030 C 
ENDBRANCH  13  15
ENDBRANCH  11  13
ENDBRANCH   1  11
TORSDOF 8
ENDMDL
MODEL      485
REMARK  Name = ZINC000379584588
REMARK                            x       y       z     vdW  Elec       q    Type
REMARK                         _______ _______ _______ _____ _____    ______ ____
ROOT
ATOM      1  N   LIG    1        1.145  -1.067   2.429  0.00  0.00    -0.500 N 
ATOM      2  H   LIG    1        0.705  -1.568   1.672  0.00  0.00    +0.420 HD
ATOM      3  H   LIG    1        0.585  -0.264   2.672  0.00  0.00    +0.420 HD
ENDROOT
BRANCH   1   4
ATOM      4  C   LIG    1        2.482  -0.622   2.011  0.00  0.00    +0.160 C 
BRANCH   4   5
ATOM      5  C   LIG    1        2.362   0.683   1.222  0.00  0.00    +0.050 C 
ATOM      6  C   LIG    1        1.827   1.786   2.139  0.00  0.00    +0.050 C 
ENDBRANCH   4   5
BRANCH   4   7
ATOM      7  C   LIG    1        3.123  -1.695   1.128  0.00  0.00    +0.100 C 
BRANCH   7   9
ATOM      8  C   LIG    1        2.977  -4.093   1.563  0.00  0.00    +0.060 C 
ATOM      9  C   LIG    1        3.411  -2.921   1.956  0.00  0.00    -0.090 C 
ENDBRANCH   7   9
ENDBRANCH   4   7
ENDBRANCH   1   4
BRANCH   1  10
ATOM     10  C   LIG    1        1.266  -1.950   3.596  0.00  0.00    +0.160 C 
BRANCH  10  11
ATOM     11  C   LIG    1        0.046  -2.871   3.667  0.00  0.00    +0.050 C 
ATOM     12  C   LIG    1        0.032  -3.794   2.447  0.00  0.00    +0.040 C 
ENDBRANCH  10  11
BRANCH  10  13
ATOM     13  C   LIG    1        1.342  -1.106   4.870  0.00  0.00    +0.060 C 
BRANCH  13  14
ATOM     14  C   LIG    1        2.630  -0.280   4.857  0.00  0.00    +0.000 C 
BRANCH  14  15
ATOM     15  C   LIG    1        2.755   0.490   6.174  0.00  0.00    +0.010 C 
ATOM     16  C   LIG    1        4.042   1.316   6.162  0.00  0.00    +0.010 C 
ENDBRANCH  14  15
ENDBRANCH  13  14
ENDBRANCH  10  13
ENDBRANCH   1  10
TORSDOF 9
ENDMDL
MODEL      486
REMARK  Name = ZINC000379584589
REMARK                            x       y       z     vdW  Elec       q    Type
REMARK                         _______ _______ _______ _____ _____    ______ ____
ROOT
ATOM      1  N   LIG    1        1.430  -1.154   2.667  0.00  0.00    -0.500 N 
ATOM      2  H   LIG    1        0.827  -0.373   2.879  0.00  0.00    +0.420 HD
ATOM      3  H   LIG    1        2.391  -0.846   2.668  0.00  0.00    +0.420 HD
ENDROOT
BRANCH   1   4
ATOM      4  C   LIG    1        1.089  -1.691   1.343  0.00  0.00    +0.160 C 
BRANCH   4   5
ATOM      5  C   LIG    1        1.746  -0.833   0.260  0.00  0.00    +0.050 C 
ATOM      6  C   LIG    1        3.267  -0.910   0.401  0.00  0.00    +0.040 C 
ENDBRANCH   4   5
BRANCH   4   7
ATOM      7  C   LIG    1       -0.430  -1.669   1.160  0.00  0.00    +0.100 C 
BRANCH   7   9
ATOM      8  C   LIG    1       -2.018  -2.250   2.922  0.00  0.00    +0.060 C 
ATOM      9  C   LIG    1       -1.065  -2.647   2.115  0.00  0.00    -0.090 C 
ENDBRANCH   7   9
ENDBRANCH   4   7
ENDBRANCH   1   4
BRANCH   1  10
ATOM     10  C   LIG    1        1.251  -2.201   3.682  0.00  0.00    +0.160 C 
BRANCH  10  11
ATOM     11  C   LIG    1        2.499  -3.085   3.728  0.00  0.00    +0.060 C 
ATOM     12  C   LIG    1        2.619  -3.868   2.419  0.00  0.00    +0.030 C 
ENDBRANCH  10  11
BRANCH  10  13
ATOM     13  C   LIG    1        1.034  -1.553   5.051  0.00  0.00    +0.050 C 
BRANCH  13  14
ATOM     14  C   LIG    1       -0.281  -0.769   5.041  0.00  0.00    -0.010 C 
BRANCH  14  15
ATOM     15  C   LIG    1       -0.498  -0.122   6.410  0.00  0.00    +0.010 C 
ATOM     16  C   LIG    1       -1.812   0.662   6.400  0.00  0.00    +0.010 C 
ENDBRANCH  14  15
ENDBRANCH  13  14
ENDBRANCH  10  13
ENDBRANCH   1  10
TORSDOF 9
ENDMDL
MODEL      487
REMARK  Name = ZINC000379591728
REMARK                            x       y       z     vdW  Elec       q    Type
REMARK                         _______ _______ _______ _____ _____    ______ ____
ROOT
ATOM      1  N   LIG    1        1.730  -4.477   2.143  0.00  0.00    -0.500 N 
ATOM      2  H   LIG    1        1.948  -5.029   1.327  0.00  0.00    +0.420 HD
ATOM      3  H   LIG    1        0.829  -4.040   2.023  0.00  0.00    +0.420 HD
ENDROOT
BRANCH   1   4
ATOM      4  C   LIG    1        1.700  -5.345   3.328  0.00  0.00    +0.150 C 
ATOM      5  C   LIG    1        2.716  -6.498   3.273  0.00  0.00    +0.050 C 
ATOM      6  C   LIG    1        1.623  -7.386   3.892  0.00  0.00    +0.070 C 
ATOM      7  C   LIG    1        0.597  -6.415   3.279  0.00  0.00    -0.010 C 
BRANCH   7   8
ATOM      8  C   LIG    1        0.170  -6.792   1.859  0.00  0.00    +0.010 C 
ATOM      9  C   LIG    1       -0.960  -7.822   1.923  0.00  0.00    +0.050 C 
ENDBRANCH   7   8
ENDBRANCH   1   4
BRANCH   1  10
ATOM     10  C   LIG    1        2.757  -3.441   2.321  0.00  0.00    +0.170 C 
ATOM     11  C   LIG    1        4.138  -4.097   2.377  0.00  0.00    +0.080 C 
BRANCH  10  12
ATOM     12  C   LIG    1        2.705  -2.464   1.145  0.00  0.00    +0.050 C 
BRANCH  12  13
ATOM     13  C   LIG    1        1.370  -1.717   1.161  0.00  0.00    +0.010 C 
BRANCH  13  14
ATOM     14  C   LIG    1        1.317  -0.740  -0.015  0.00  0.00    +0.060 C 
BRANCH  14  16
ATOM     15  C   LIG    1       -0.016   1.306   0.009  0.00  0.00    +0.030 C 
ATOM     16  C   LIG    1        0.002  -0.004   0.002  0.00  0.00    -0.070 C 
ENDBRANCH  14  16
ENDBRANCH  13  14
ENDBRANCH  12  13
ENDBRANCH  10  12
ENDBRANCH   1  10
TORSDOF 7
ENDMDL
MODEL      488
REMARK  Name = ZINC000379591730
REMARK                            x       y       z     vdW  Elec       q    Type
REMARK                         _______ _______ _______ _____ _____    ______ ____
ROOT
ATOM      1  N   LIG    1        1.730  -4.477   2.143  0.00  0.00    -0.500 N 
ATOM      2  H   LIG    1        1.948  -5.029   1.327  0.00  0.00    +0.420 HD
ATOM      3  H   LIG    1        0.829  -4.040   2.023  0.00  0.00    +0.420 HD
ENDROOT
BRANCH   1   4
ATOM      4  C   LIG    1        1.700  -5.345   3.328  0.00  0.00    +0.150 C 
ATOM      5  C   LIG    1        2.716  -6.498   3.273  0.00  0.00    +0.050 C 
ATOM      6  C   LIG    1        1.623  -7.386   3.892  0.00  0.00    +0.070 C 
ATOM      7  C   LIG    1        0.597  -6.415   3.279  0.00  0.00    +0.000 C 
BRANCH   7   8
ATOM      8  C   LIG    1       -0.591  -6.119   4.197  0.00  0.00    +0.030 C 
ATOM      9  C   LIG    1       -1.646  -7.215   4.034  0.00  0.00    +0.030 C 
ENDBRANCH   7   8
ENDBRANCH   1   4
BRANCH   1  10
ATOM     10  C   LIG    1        2.757  -3.441   2.321  0.00  0.00    +0.170 C 
ATOM     11  C   LIG    1        4.138  -4.097   2.377  0.00  0.00    +0.080 C 
BRANCH  10  12
ATOM     12  C   LIG    1        2.705  -2.464   1.145  0.00  0.00    +0.050 C 
BRANCH  12  13
ATOM     13  C   LIG    1        1.370  -1.717   1.161  0.00  0.00    +0.010 C 
BRANCH  13  14
ATOM     14  C   LIG    1        1.317  -0.740  -0.015  0.00  0.00    +0.060 C 
BRANCH  14  16
ATOM     15  C   LIG    1       -0.016   1.306   0.009  0.00  0.00    +0.030 C 
ATOM     16  C   LIG    1        0.002  -0.004   0.002  0.00  0.00    -0.070 C 
ENDBRANCH  14  16
ENDBRANCH  13  14
ENDBRANCH  12  13
ENDBRANCH  10  12
ENDBRANCH   1  10
TORSDOF 7
ENDMDL
MODEL      489
REMARK  Name = ZINC000379591729
REMARK                            x       y       z     vdW  Elec       q    Type
REMARK                         _______ _______ _______ _____ _____    ______ ____
ROOT
ATOM      1  N   LIG    1        1.730  -4.477   2.143  0.00  0.00    -0.490 N 
ATOM      2  H   LIG    1        1.948  -5.029   1.327  0.00  0.00    +0.430 HD
ATOM      3  H   LIG    1        0.829  -4.040   2.023  0.00  0.00    +0.420 HD
ENDROOT
BRANCH   1   4
ATOM      4  C   LIG    1        1.700  -5.345   3.328  0.00  0.00    +0.130 C 
ATOM      5  C   LIG    1        0.808  -4.810   4.460  0.00  0.00    +0.070 C 
ATOM      6  C   LIG    1       -0.351  -5.577   3.803  0.00  0.00    +0.040 C 
ATOM      7  C   LIG    1        0.713  -6.518   3.207  0.00  0.00    +0.020 C 
BRANCH   7   8
ATOM      8  C   LIG    1        0.424  -6.933   1.763  0.00  0.00    -0.010 C 
ATOM      9  C   LIG    1       -0.526  -8.132   1.758  0.00  0.00    +0.040 C 
ENDBRANCH   7   8
ENDBRANCH   1   4
BRANCH   1  10
ATOM     10  C   LIG    1        2.757  -3.441   2.321  0.00  0.00    +0.170 C 
ATOM     11  C   LIG    1        4.138  -4.097   2.377  0.00  0.00    +0.090 C 
BRANCH  10  12
ATOM     12  C   LIG    1        2.705  -2.464   1.145  0.00  0.00    +0.050 C 
BRANCH  12  13
ATOM     13  C   LIG    1        1.370  -1.717   1.161  0.00  0.00    +0.010 C 
BRANCH  13  14
ATOM     14  C   LIG    1        1.317  -0.740  -0.015  0.00  0.00    +0.070 C 
BRANCH  14  16
ATOM     15  C   LIG    1       -0.016   1.306   0.009  0.00  0.00    +0.030 C 
ATOM     16  C   LIG    1        0.002  -0.004   0.002  0.00  0.00    -0.070 C 
ENDBRANCH  14  16
ENDBRANCH  13  14
ENDBRANCH  12  13
ENDBRANCH  10  12
ENDBRANCH   1  10
TORSDOF 7
ENDMDL
MODEL      490
REMARK  Name = ZINC000379591727
REMARK                            x       y       z     vdW  Elec       q    Type
REMARK                         _______ _______ _______ _____ _____    ______ ____
ROOT
ATOM      1  N   LIG    1        1.730  -4.477   2.143  0.00  0.00    -0.500 N 
ATOM      2  H   LIG    1        1.948  -5.029   1.327  0.00  0.00    +0.420 HD
ATOM      3  H   LIG    1        0.829  -4.040   2.023  0.00  0.00    +0.420 HD
ENDROOT
BRANCH   1   4
ATOM      4  C   LIG    1        1.700  -5.345   3.328  0.00  0.00    +0.150 C 
ATOM      5  C   LIG    1        0.808  -4.810   4.460  0.00  0.00    +0.050 C 
ATOM      6  C   LIG    1        0.354  -6.262   4.682  0.00  0.00    +0.070 C 
ATOM      7  C   LIG    1        0.713  -6.518   3.207  0.00  0.00    +0.000 C 
BRANCH   7   8
ATOM      8  C   LIG    1        1.387  -7.870   2.966  0.00  0.00    +0.030 C 
ATOM      9  C   LIG    1        0.318  -8.953   2.812  0.00  0.00    +0.030 C 
ENDBRANCH   7   8
ENDBRANCH   1   4
BRANCH   1  10
ATOM     10  C   LIG    1        2.757  -3.441   2.321  0.00  0.00    +0.170 C 
ATOM     11  C   LIG    1        4.138  -4.097   2.377  0.00  0.00    +0.090 C 
BRANCH  10  12
ATOM     12  C   LIG    1        2.705  -2.464   1.145  0.00  0.00    +0.050 C 
BRANCH  12  13
ATOM     13  C   LIG    1        1.370  -1.717   1.161  0.00  0.00    +0.010 C 
BRANCH  13  14
ATOM     14  C   LIG    1        1.317  -0.740  -0.015  0.00  0.00    +0.070 C 
BRANCH  14  16
ATOM     15  C   LIG    1       -0.016   1.306   0.009  0.00  0.00    +0.030 C 
ATOM     16  C   LIG    1        0.002  -0.004   0.002  0.00  0.00    -0.070 C 
ENDBRANCH  14  16
ENDBRANCH  13  14
ENDBRANCH  12  13
ENDBRANCH  10  12
ENDBRANCH   1  10
TORSDOF 7
ENDMDL
MODEL      491
REMARK  Name = ZINC000379606822
REMARK                            x       y       z     vdW  Elec       q    Type
REMARK                         _______ _______ _______ _____ _____    ______ ____
ROOT
ATOM      1  C   LIG    1       -2.594  -2.500  -1.129  0.00  0.00    +0.170 C 
ENDROOT
BRANCH   1   2
ATOM      2  N   LIG    1       -3.851  -1.774  -1.353  0.00  0.00    -0.500 N 
ATOM      3  H   LIG    1       -3.904  -0.990  -0.721  0.00  0.00    +0.420 HD
ATOM      4  H   LIG    1       -4.630  -2.393  -1.187  0.00  0.00    +0.430 HD
BRANCH   2   5
ATOM      5  C   LIG    1       -3.897  -1.290  -2.739  0.00  0.00    +0.140 C 
ATOM      6  C   LIG    1       -3.276   0.105  -2.925  0.00  0.00    +0.050 C 
ATOM      7  C   LIG    1       -4.435   0.405  -3.891  0.00  0.00    +0.070 C 
ATOM      8  C   LIG    1       -5.244  -0.659  -3.127  0.00  0.00    +0.000 C 
ATOM      9  C   LIG    1       -6.102  -1.544  -4.034  0.00  0.00    +0.050 C 
ENDBRANCH   2   5
ENDBRANCH   1   2
BRANCH   1  10
ATOM     10  C   LIG    1       -1.413  -1.546  -1.325  0.00  0.00    +0.060 C 
BRANCH  10  11
ATOM     11  C   LIG    1       -1.451  -0.460  -0.249  0.00  0.00    +0.050 C 
BRANCH  11  13
ATOM     12  C   LIG    1       -0.499   1.766  -0.566  0.00  0.00    +0.040 C 
ATOM     13  C   LIG    1       -0.288   0.479  -0.442  0.00  0.00    -0.050 C 
ENDBRANCH  11  13
ENDBRANCH  10  11
ENDBRANCH   1  10
BRANCH   1  14
ATOM     14  C   LIG    1       -2.487  -3.655  -2.126  0.00  0.00    +0.050 C 
BRANCH  14  15
ATOM     15  C   LIG    1       -3.633  -4.640  -1.890  0.00  0.00    -0.000 C 
ATOM     16  C   LIG    1       -3.456  -5.857  -2.800  0.00  0.00    +0.030 C 
ENDBRANCH  14  15
ENDBRANCH   1  14
TORSDOF 7
ENDMDL
MODEL      492
REMARK  Name = ZINC000379606821
REMARK                            x       y       z     vdW  Elec       q    Type
REMARK                         _______ _______ _______ _____ _____    ______ ____
ROOT
ATOM      1  C   LIG    1       -2.751  -2.559  -1.319  0.00  0.00    +0.170 C 
ENDROOT
BRANCH   1   2
ATOM      2  N   LIG    1       -3.890  -1.634  -1.245  0.00  0.00    -0.500 N 
ATOM      3  H   LIG    1       -4.025  -1.195  -2.144  0.00  0.00    +0.420 HD
ATOM      4  H   LIG    1       -3.705  -0.927  -0.550  0.00  0.00    +0.420 HD
BRANCH   2   5
ATOM      5  C   LIG    1       -5.102  -2.379  -0.877  0.00  0.00    +0.150 C 
ATOM      6  C   LIG    1       -5.308  -2.508   0.641  0.00  0.00    +0.050 C 
ATOM      7  C   LIG    1       -6.804  -2.267   0.379  0.00  0.00    +0.070 C 
ATOM      8  C   LIG    1       -6.381  -1.525  -0.901  0.00  0.00    -0.010 C 
ATOM      9  C   LIG    1       -7.288  -1.806  -2.101  0.00  0.00    +0.050 C 
ENDBRANCH   2   5
ENDBRANCH   1   2
BRANCH   1  10
ATOM     10  C   LIG    1       -1.465  -1.765  -1.559  0.00  0.00    +0.070 C 
BRANCH  10  11
ATOM     11  C   LIG    1       -1.184  -0.871  -0.350  0.00  0.00    +0.050 C 
BRANCH  11  13
ATOM     12  C   LIG    1        0.072   1.217  -0.499  0.00  0.00    +0.040 C 
ATOM     13  C   LIG    1        0.083  -0.090  -0.587  0.00  0.00    -0.050 C 
ENDBRANCH  11  13
ENDBRANCH  10  11
ENDBRANCH   1  10
BRANCH   1  14
ATOM     14  C   LIG    1       -2.966  -3.543  -2.470  0.00  0.00    +0.040 C 
BRANCH  14  15
ATOM     15  C   LIG    1       -1.854  -4.594  -2.457  0.00  0.00    +0.030 C 
ATOM     16  C   LIG    1       -2.023  -5.530  -3.655  0.00  0.00    +0.030 C 
ENDBRANCH  14  15
ENDBRANCH   1  14
TORSDOF 7
ENDMDL
MODEL      493
REMARK  Name = ZINC000379606823
REMARK                            x       y       z     vdW  Elec       q    Type
REMARK                         _______ _______ _______ _____ _____    ______ ____
ROOT
ATOM      1  C   LIG    1       -2.594  -2.501  -1.129  0.00  0.00    +0.170 C 
ENDROOT
BRANCH   1   2
ATOM      2  N   LIG    1       -3.851  -1.775  -1.353  0.00  0.00    -0.500 N 
ATOM      3  H   LIG    1       -3.903  -0.990  -0.721  0.00  0.00    +0.420 HD
ATOM      4  H   LIG    1       -4.630  -2.393  -1.187  0.00  0.00    +0.430 HD
BRANCH   2   5
ATOM      5  C   LIG    1       -3.896  -1.291  -2.739  0.00  0.00    +0.150 C 
ATOM      6  C   LIG    1       -3.276   0.104  -2.926  0.00  0.00    +0.050 C 
ATOM      7  C   LIG    1       -4.434   0.404  -3.892  0.00  0.00    +0.070 C 
ATOM      8  C   LIG    1       -5.244  -0.660  -3.128  0.00  0.00    -0.010 C 
ATOM      9  C   LIG    1       -6.024  -0.098  -1.938  0.00  0.00    +0.060 C 
ENDBRANCH   2   5
ENDBRANCH   1   2
BRANCH   1  10
ATOM     10  C   LIG    1       -1.413  -1.548  -1.325  0.00  0.00    +0.060 C 
BRANCH  10  11
ATOM     11  C   LIG    1       -1.450  -0.461  -0.249  0.00  0.00    +0.050 C 
BRANCH  11  13
ATOM     12  C   LIG    1       -0.497   1.764  -0.567  0.00  0.00    +0.040 C 
ATOM     13  C   LIG    1       -0.286   0.477  -0.443  0.00  0.00    -0.050 C 
ENDBRANCH  11  13
ENDBRANCH  10  11
ENDBRANCH   1  10
BRANCH   1  14
ATOM     14  C   LIG    1       -2.487  -3.657  -2.125  0.00  0.00    +0.050 C 
BRANCH  14  15
ATOM     15  C   LIG    1       -3.634  -4.641  -1.889  0.00  0.00    -0.000 C 
ATOM     16  C   LIG    1       -3.458  -5.859  -2.798  0.00  0.00    +0.030 C 
ENDBRANCH  14  15
ENDBRANCH   1  14
TORSDOF 7
ENDMDL
MODEL      494
REMARK  Name = ZINC000379606820
REMARK                            x       y       z     vdW  Elec       q    Type
REMARK                         _______ _______ _______ _____ _____    ______ ____
ROOT
ATOM      1  C   LIG    1       -2.752  -2.558  -1.320  0.00  0.00    +0.170 C 
ENDROOT
BRANCH   1   2
ATOM      2  N   LIG    1       -3.890  -1.632  -1.244  0.00  0.00    -0.500 N 
ATOM      3  H   LIG    1       -4.026  -1.192  -2.142  0.00  0.00    +0.420 HD
ATOM      4  H   LIG    1       -3.703  -0.926  -0.548  0.00  0.00    +0.420 HD
BRANCH   2   5
ATOM      5  C   LIG    1       -5.102  -2.375  -0.874  0.00  0.00    +0.150 C 
ATOM      6  C   LIG    1       -5.306  -2.505   0.644  0.00  0.00    +0.050 C 
ATOM      7  C   LIG    1       -6.803  -2.262   0.385  0.00  0.00    +0.070 C 
ATOM      8  C   LIG    1       -6.380  -1.520  -0.896  0.00  0.00    -0.010 C 
ATOM      9  C   LIG    1       -6.123  -0.027  -0.683  0.00  0.00    +0.060 C 
ENDBRANCH   2   5
ENDBRANCH   1   2
BRANCH   1  10
ATOM     10  C   LIG    1       -1.466  -1.766  -1.562  0.00  0.00    +0.070 C 
BRANCH  10  11
ATOM     11  C   LIG    1       -1.181  -0.873  -0.352  0.00  0.00    +0.050 C 
BRANCH  11  13
ATOM     12  C   LIG    1        0.077   1.214  -0.500  0.00  0.00    +0.040 C 
ATOM     13  C   LIG    1        0.086  -0.093  -0.590  0.00  0.00    -0.050 C 
ENDBRANCH  11  13
ENDBRANCH  10  11
ENDBRANCH   1  10
BRANCH   1  14
ATOM     14  C   LIG    1       -2.970  -3.541  -2.472  0.00  0.00    +0.040 C 
BRANCH  14  15
ATOM     15  C   LIG    1       -1.860  -4.593  -2.462  0.00  0.00    +0.030 C 
ATOM     16  C   LIG    1       -2.032  -5.527  -3.661  0.00  0.00    +0.030 C 
ENDBRANCH  14  15
ENDBRANCH   1  14
TORSDOF 7
ENDMDL
MODEL      495
REMARK  Name = ZINC000379646650
REMARK                            x       y       z     vdW  Elec       q    Type
REMARK                         _______ _______ _______ _____ _____    ______ ____
ROOT
ATOM      1  N   LIG    1       -2.671  -2.724  -3.608  0.00  0.00    -0.510 N 
ATOM      2  H   LIG    1       -1.886  -2.090  -3.623  0.00  0.00    +0.430 HD
ATOM      3  H   LIG    1       -3.529  -2.198  -3.674  0.00  0.00    +0.430 HD
ENDROOT
BRANCH   1   4
ATOM      4  C   LIG    1       -2.659  -3.489  -2.355  0.00  0.00    +0.170 C 
ATOM      5  C   LIG    1       -3.915  -4.359  -2.277  0.00  0.00    +0.090 C 
BRANCH   4   6
ATOM      6  C   LIG    1       -2.633  -2.524  -1.168  0.00  0.00    +0.050 C 
BRANCH   6   7
ATOM      7  C   LIG    1       -1.319  -1.741  -1.176  0.00  0.00    +0.010 C 
BRANCH   7   8
ATOM      8  C   LIG    1       -1.293  -0.775   0.010  0.00  0.00    +0.060 C 
BRANCH   8  10
ATOM      9  C   LIG    1       -0.016   1.306   0.009  0.00  0.00    +0.020 C 
ATOM     10  C   LIG    1        0.002  -0.004   0.002  0.00  0.00    -0.060 C 
ENDBRANCH   8  10
ENDBRANCH   7   8
ENDBRANCH   6   7
ENDBRANCH   4   6
ENDBRANCH   1   4
BRANCH   1  11
ATOM     11  C   LIG    1       -2.575  -3.647  -4.747  0.00  0.00    +0.250 C 
BRANCH  11  12
ATOM     12  C   LIG    1       -2.587  -2.850  -6.053  0.00  0.00    +0.040 C 
BRANCH  12  13
ATOM     13  C   LIG    1       -2.487  -3.812  -7.238  0.00  0.00    -0.060 C 
ATOM     14  C   LIG    1       -1.185  -4.610  -7.140  0.00  0.00    +0.020 C 
ATOM     15  C   LIG    1       -2.499  -3.015  -8.544  0.00  0.00    +0.040 C 
ATOM     16  C   LIG    1       -3.677  -4.773  -7.217  0.00  0.00    +0.030 C 
ENDBRANCH  12  13
ENDBRANCH  11  12
ENDBRANCH   1  11
TORSDOF 8
ENDMDL
MODEL      496
REMARK  Name = ZINC000379646654
REMARK                            x       y       z     vdW  Elec       q    Type
REMARK                         _______ _______ _______ _____ _____    ______ ____
ROOT
ATOM      1  N   LIG    1       -1.605  -4.498  -2.188  0.00  0.00    -0.510 N 
ATOM      2  H   LIG    1       -1.807  -5.065  -1.378  0.00  0.00    +0.430 HD
ATOM      3  H   LIG    1       -0.716  -4.038  -2.063  0.00  0.00    +0.430 HD
ENDROOT
BRANCH   1   4
ATOM      4  C   LIG    1       -2.659  -3.489  -2.355  0.00  0.00    +0.170 C 
ATOM      5  C   LIG    1       -4.022  -4.181  -2.419  0.00  0.00    +0.090 C 
BRANCH   4   6
ATOM      6  C   LIG    1       -2.633  -2.524  -1.168  0.00  0.00    +0.050 C 
BRANCH   6   7
ATOM      7  C   LIG    1       -1.319  -1.741  -1.176  0.00  0.00    +0.010 C 
BRANCH   7   8
ATOM      8  C   LIG    1       -1.293  -0.775   0.010  0.00  0.00    +0.060 C 
BRANCH   8  10
ATOM      9  C   LIG    1       -0.016   1.306   0.009  0.00  0.00    +0.030 C 
ATOM     10  C   LIG    1        0.002  -0.004   0.002  0.00  0.00    -0.070 C 
ENDBRANCH   8  10
ENDBRANCH   7   8
ENDBRANCH   6   7
ENDBRANCH   4   6
ENDBRANCH   1   4
BRANCH   1  11
ATOM     11  C   LIG    1       -1.551  -5.352  -3.382  0.00  0.00    +0.250 C 
BRANCH  11  12
ATOM     12  C   LIG    1       -0.453  -6.403  -3.209  0.00  0.00    +0.040 C 
BRANCH  12  13
ATOM     13  C   LIG    1       -0.397  -7.292  -4.453  0.00  0.00    -0.060 C 
ATOM     14  C   LIG    1       -1.745  -7.990  -4.642  0.00  0.00    +0.030 C 
ATOM     15  C   LIG    1        0.702  -8.343  -4.279  0.00  0.00    +0.040 C 
ATOM     16  C   LIG    1       -0.091  -6.432  -5.681  0.00  0.00    +0.020 C 
ENDBRANCH  12  13
ENDBRANCH  11  12
ENDBRANCH   1  11
TORSDOF 8
ENDMDL
MODEL      497
REMARK  Name = ZINC000379649541
REMARK                            x       y       z     vdW  Elec       q    Type
REMARK                         _______ _______ _______ _____ _____    ______ ____
ROOT
ATOM      1  C   LIG    1        4.093  -4.188   2.304  0.00  0.00    +0.170 C 
ATOM      2  C   LIG    1        4.096  -5.252   3.403  0.00  0.00    +0.080 C 
ENDROOT
BRANCH   1   3
ATOM      3  N   LIG    1        5.188  -3.238   2.539  0.00  0.00    -0.500 N 
ATOM      4  H   LIG    1        5.108  -2.856   3.469  0.00  0.00    +0.420 HD
ATOM      5  H   LIG    1        5.136  -2.491   1.863  0.00  0.00    +0.420 HD
BRANCH   3   6
ATOM      6  C   LIG    1        6.476  -3.933   2.404  0.00  0.00    +0.150 C 
ATOM      7  C   LIG    1        6.942  -4.621   3.698  0.00  0.00    +0.050 C 
ATOM      8  C   LIG    1        8.360  -4.138   3.350  0.00  0.00    +0.070 C 
ATOM      9  C   LIG    1        7.694  -3.005   2.549  0.00  0.00    -0.010 C 
ATOM     10  C   LIG    1        7.414  -1.750   3.379  0.00  0.00    +0.060 C 
ENDBRANCH   3   6
ENDBRANCH   1   3
BRANCH   1  11
ATOM     11  C   LIG    1        2.757  -3.441   2.321  0.00  0.00    +0.050 C 
BRANCH  11  12
ATOM     12  C   LIG    1        2.705  -2.464   1.145  0.00  0.00    -0.000 C 
BRANCH  12  13
ATOM     13  C   LIG    1        1.370  -1.717   1.161  0.00  0.00    +0.020 C 
BRANCH  13  14
ATOM     14  C   LIG    1        1.317  -0.740  -0.015  0.00  0.00    +0.050 C 
BRANCH  14  16
ATOM     15  C   LIG    1       -0.016   1.306   0.009  0.00  0.00    +0.020 C 
ATOM     16  C   LIG    1        0.002  -0.004   0.002  0.00  0.00    -0.060 C 
ENDBRANCH  14  16
ENDBRANCH  13  14
ENDBRANCH  12  13
ENDBRANCH  11  12
ENDBRANCH   1  11
TORSDOF 7
ENDMDL
MODEL      498
REMARK  Name = ZINC000379649540
REMARK                            x       y       z     vdW  Elec       q    Type
REMARK                         _______ _______ _______ _____ _____    ______ ____
ROOT
ATOM      1  C   LIG    1        4.093  -4.188   2.304  0.00  0.00    +0.170 C 
ATOM      2  C   LIG    1        4.096  -5.252   3.403  0.00  0.00    +0.080 C 
ENDROOT
BRANCH   1   3
ATOM      3  N   LIG    1        5.188  -3.238   2.539  0.00  0.00    -0.500 N 
ATOM      4  H   LIG    1        5.108  -2.856   3.469  0.00  0.00    +0.420 HD
ATOM      5  H   LIG    1        5.136  -2.491   1.863  0.00  0.00    +0.420 HD
BRANCH   3   6
ATOM      6  C   LIG    1        6.476  -3.933   2.404  0.00  0.00    +0.150 C 
ATOM      7  C   LIG    1        6.942  -4.621   3.698  0.00  0.00    +0.050 C 
ATOM      8  C   LIG    1        8.360  -4.138   3.350  0.00  0.00    +0.070 C 
ATOM      9  C   LIG    1        7.694  -3.005   2.549  0.00  0.00    -0.010 C 
ATOM     10  C   LIG    1        8.395  -2.696   1.225  0.00  0.00    +0.050 C 
ENDBRANCH   3   6
ENDBRANCH   1   3
BRANCH   1  11
ATOM     11  C   LIG    1        2.757  -3.441   2.321  0.00  0.00    +0.050 C 
BRANCH  11  12
ATOM     12  C   LIG    1        2.705  -2.464   1.145  0.00  0.00    -0.000 C 
BRANCH  12  13
ATOM     13  C   LIG    1        1.370  -1.717   1.161  0.00  0.00    +0.020 C 
BRANCH  13  14
ATOM     14  C   LIG    1        1.317  -0.740  -0.015  0.00  0.00    +0.050 C 
BRANCH  14  16
ATOM     15  C   LIG    1       -0.016   1.306   0.009  0.00  0.00    +0.020 C 
ATOM     16  C   LIG    1        0.002  -0.004   0.002  0.00  0.00    -0.060 C 
ENDBRANCH  14  16
ENDBRANCH  13  14
ENDBRANCH  12  13
ENDBRANCH  11  12
ENDBRANCH   1  11
TORSDOF 7
ENDMDL
MODEL      499
REMARK  Name = ZINC000379649539
REMARK                            x       y       z     vdW  Elec       q    Type
REMARK                         _______ _______ _______ _____ _____    ______ ____
ROOT
ATOM      1  C   LIG    1        4.093  -4.188   2.304  0.00  0.00    +0.170 C 
ATOM      2  C   LIG    1        4.096  -5.252   3.403  0.00  0.00    +0.090 C 
ENDROOT
BRANCH   1   3
ATOM      3  N   LIG    1        5.188  -3.238   2.539  0.00  0.00    -0.500 N 
ATOM      4  H   LIG    1        5.108  -2.856   3.469  0.00  0.00    +0.420 HD
ATOM      5  H   LIG    1        5.136  -2.491   1.863  0.00  0.00    +0.420 HD
BRANCH   3   6
ATOM      6  C   LIG    1        6.476  -3.933   2.404  0.00  0.00    +0.150 C 
ATOM      7  C   LIG    1        6.991  -3.999   0.957  0.00  0.00    +0.050 C 
ATOM      8  C   LIG    1        8.393  -3.724   1.527  0.00  0.00    +0.070 C 
ATOM      9  C   LIG    1        7.691  -3.043   2.716  0.00  0.00    -0.010 C 
ATOM     10  C   LIG    1        8.344  -3.341   4.066  0.00  0.00    +0.050 C 
ENDBRANCH   3   6
ENDBRANCH   1   3
BRANCH   1  11
ATOM     11  C   LIG    1        2.757  -3.441   2.321  0.00  0.00    +0.050 C 
BRANCH  11  12
ATOM     12  C   LIG    1        2.705  -2.464   1.145  0.00  0.00    +0.010 C 
BRANCH  12  13
ATOM     13  C   LIG    1        1.370  -1.717   1.161  0.00  0.00    +0.020 C 
BRANCH  13  14
ATOM     14  C   LIG    1        1.317  -0.740  -0.015  0.00  0.00    +0.050 C 
BRANCH  14  16
ATOM     15  C   LIG    1       -0.016   1.306   0.009  0.00  0.00    +0.020 C 
ATOM     16  C   LIG    1        0.002  -0.004   0.002  0.00  0.00    -0.060 C 
ENDBRANCH  14  16
ENDBRANCH  13  14
ENDBRANCH  12  13
ENDBRANCH  11  12
ENDBRANCH   1  11
TORSDOF 7
ENDMDL
MODEL      500
REMARK  Name = ZINC000379649538
REMARK                            x       y       z     vdW  Elec       q    Type
REMARK                         _______ _______ _______ _____ _____    ______ ____
ROOT
ATOM      1  C   LIG    1        4.093  -4.188   2.304  0.00  0.00    +0.170 C 
ATOM      2  C   LIG    1        4.096  -5.252   3.403  0.00  0.00    +0.090 C 
ENDROOT
BRANCH   1   3
ATOM      3  N   LIG    1        5.188  -3.238   2.539  0.00  0.00    -0.500 N 
ATOM      4  H   LIG    1        5.108  -2.856   3.469  0.00  0.00    +0.420 HD
ATOM      5  H   LIG    1        5.136  -2.491   1.863  0.00  0.00    +0.420 HD
BRANCH   3   6
ATOM      6  C   LIG    1        6.476  -3.933   2.404  0.00  0.00    +0.150 C 
ATOM      7  C   LIG    1        6.991  -3.999   0.957  0.00  0.00    +0.050 C 
ATOM      8  C   LIG    1        8.393  -3.724   1.527  0.00  0.00    +0.070 C 
ATOM      9  C   LIG    1        7.691  -3.043   2.716  0.00  0.00    -0.010 C 
ATOM     10  C   LIG    1        7.430  -1.551   2.500  0.00  0.00    +0.050 C 
ENDBRANCH   3   6
ENDBRANCH   1   3
BRANCH   1  11
ATOM     11  C   LIG    1        2.757  -3.441   2.321  0.00  0.00    +0.050 C 
BRANCH  11  12
ATOM     12  C   LIG    1        2.705  -2.464   1.145  0.00  0.00    -0.000 C 
BRANCH  12  13
ATOM     13  C   LIG    1        1.370  -1.717   1.161  0.00  0.00    +0.020 C 
BRANCH  13  14
ATOM     14  C   LIG    1        1.317  -0.740  -0.015  0.00  0.00    +0.050 C 
BRANCH  14  16
ATOM     15  C   LIG    1       -0.016   1.306   0.009  0.00  0.00    +0.020 C 
ATOM     16  C   LIG    1        0.002  -0.004   0.002  0.00  0.00    -0.060 C 
ENDBRANCH  14  16
ENDBRANCH  13  14
ENDBRANCH  12  13
ENDBRANCH  11  12
ENDBRANCH   1  11
TORSDOF 7
ENDMDL
MODEL      501
REMARK  Name = ZINC000379667903
REMARK                            x       y       z     vdW  Elec       q    Type
REMARK                         _______ _______ _______ _____ _____    ______ ____
ROOT
ATOM      1  N   LIG    1        2.748  -2.690   3.583  0.00  0.00    -0.490 N 
ATOM      2  H   LIG    1        1.946  -2.078   3.604  0.00  0.00    +0.430 HD
ATOM      3  H   LIG    1        3.592  -2.141   3.654  0.00  0.00    +0.420 HD
ENDROOT
BRANCH   1   4
ATOM      4  C   LIG    1        2.678  -3.628   4.711  0.00  0.00    +0.140 C 
ATOM      5  C   LIG    1        4.051  -4.154   5.161  0.00  0.00    +0.070 C 
ATOM      6  C   LIG    1        4.118  -2.942   6.105  0.00  0.00    +0.040 C 
ATOM      7  C   LIG    1        2.578  -2.938   6.081  0.00  0.00    -0.080 C 
ATOM      8  C   LIG    1        1.946  -3.813   7.165  0.00  0.00    +0.080 C 
ATOM      9  C   LIG    1        1.969  -1.535   6.019  0.00  0.00    +0.050 C 
ENDBRANCH   1   4
BRANCH   1  10
ATOM     10  C   LIG    1        2.757  -3.441   2.321  0.00  0.00    +0.170 C 
ATOM     11  C   LIG    1        4.037  -4.276   2.233  0.00  0.00    +0.090 C 
BRANCH  10  12
ATOM     12  C   LIG    1        2.705  -2.464   1.145  0.00  0.00    +0.060 C 
BRANCH  12  13
ATOM     13  C   LIG    1        1.370  -1.717   1.161  0.00  0.00    +0.010 C 
BRANCH  13  14
ATOM     14  C   LIG    1        1.317  -0.740  -0.015  0.00  0.00    +0.060 C 
BRANCH  14  16
ATOM     15  C   LIG    1       -0.016   1.306   0.009  0.00  0.00    +0.020 C 
ATOM     16  C   LIG    1        0.002  -0.004   0.002  0.00  0.00    -0.060 C 
ENDBRANCH  14  16
ENDBRANCH  13  14
ENDBRANCH  12  13
ENDBRANCH  10  12
ENDBRANCH   1  10
TORSDOF 6
ENDMDL
MODEL      502
REMARK  Name = ZINC000379667905
REMARK                            x       y       z     vdW  Elec       q    Type
REMARK                         _______ _______ _______ _____ _____    ______ ____
ROOT
ATOM      1  N   LIG    1        1.730  -4.477   2.143  0.00  0.00    -0.490 N 
ATOM      2  H   LIG    1        1.948  -5.029   1.327  0.00  0.00    +0.430 HD
ATOM      3  H   LIG    1        0.829  -4.040   2.023  0.00  0.00    +0.420 HD
ENDROOT
BRANCH   1   4
ATOM      4  C   LIG    1        1.700  -5.345   3.328  0.00  0.00    +0.130 C 
ATOM      5  C   LIG    1        0.808  -4.810   4.460  0.00  0.00    +0.070 C 
ATOM      6  C   LIG    1       -0.351  -5.577   3.803  0.00  0.00    +0.040 C 
ATOM      7  C   LIG    1        0.713  -6.518   3.207  0.00  0.00    -0.080 C 
ATOM      8  C   LIG    1        1.056  -7.705   4.109  0.00  0.00    +0.080 C 
ATOM      9  C   LIG    1        0.425  -6.932   1.762  0.00  0.00    +0.050 C 
ENDBRANCH   1   4
BRANCH   1  10
ATOM     10  C   LIG    1        2.757  -3.441   2.321  0.00  0.00    +0.170 C 
ATOM     11  C   LIG    1        4.138  -4.097   2.377  0.00  0.00    +0.090 C 
BRANCH  10  12
ATOM     12  C   LIG    1        2.705  -2.464   1.145  0.00  0.00    +0.050 C 
BRANCH  12  13
ATOM     13  C   LIG    1        1.370  -1.717   1.161  0.00  0.00    +0.010 C 
BRANCH  13  14
ATOM     14  C   LIG    1        1.317  -0.740  -0.015  0.00  0.00    +0.070 C 
BRANCH  14  16
ATOM     15  C   LIG    1       -0.016   1.306   0.009  0.00  0.00    +0.030 C 
ATOM     16  C   LIG    1        0.002  -0.004   0.002  0.00  0.00    -0.070 C 
ENDBRANCH  14  16
ENDBRANCH  13  14
ENDBRANCH  12  13
ENDBRANCH  10  12
ENDBRANCH   1  10
TORSDOF 6
ENDMDL
MODEL      503
REMARK  Name = ZINC000379667904
REMARK                            x       y       z     vdW  Elec       q    Type
REMARK                         _______ _______ _______ _____ _____    ______ ____
ROOT
ATOM      1  N   LIG    1        1.730  -4.477   2.143  0.00  0.00    -0.500 N 
ATOM      2  H   LIG    1        1.948  -5.029   1.327  0.00  0.00    +0.420 HD
ATOM      3  H   LIG    1        0.829  -4.040   2.023  0.00  0.00    +0.420 HD
ENDROOT
BRANCH   1   4
ATOM      4  C   LIG    1        1.700  -5.345   3.328  0.00  0.00    +0.160 C 
ATOM      5  C   LIG    1        2.716  -6.498   3.273  0.00  0.00    +0.060 C 
ATOM      6  C   LIG    1        1.623  -7.386   3.892  0.00  0.00    +0.070 C 
ATOM      7  C   LIG    1        0.597  -6.415   3.279  0.00  0.00    -0.090 C 
ATOM      8  C   LIG    1        0.171  -6.791   1.858  0.00  0.00    +0.060 C 
ATOM      9  C   LIG    1       -0.590  -6.118   4.198  0.00  0.00    +0.060 C 
ENDBRANCH   1   4
BRANCH   1  10
ATOM     10  C   LIG    1        2.757  -3.441   2.321  0.00  0.00    +0.170 C 
ATOM     11  C   LIG    1        4.138  -4.097   2.377  0.00  0.00    +0.080 C 
BRANCH  10  12
ATOM     12  C   LIG    1        2.705  -2.464   1.145  0.00  0.00    +0.050 C 
BRANCH  12  13
ATOM     13  C   LIG    1        1.370  -1.717   1.161  0.00  0.00    +0.010 C 
BRANCH  13  14
ATOM     14  C   LIG    1        1.317  -0.740  -0.015  0.00  0.00    +0.070 C 
BRANCH  14  16
ATOM     15  C   LIG    1       -0.016   1.306   0.009  0.00  0.00    +0.030 C 
ATOM     16  C   LIG    1        0.002  -0.004   0.002  0.00  0.00    -0.070 C 
ENDBRANCH  14  16
ENDBRANCH  13  14
ENDBRANCH  12  13
ENDBRANCH  10  12
ENDBRANCH   1  10
TORSDOF 6
ENDMDL
MODEL      504
REMARK  Name = ZINC000379667906
REMARK                            x       y       z     vdW  Elec       q    Type
REMARK                         _______ _______ _______ _____ _____    ______ ____
ROOT
ATOM      1  N   LIG    1        2.748  -2.690   3.583  0.00  0.00    -0.500 N 
ATOM      2  H   LIG    1        1.946  -2.078   3.604  0.00  0.00    +0.420 HD
ATOM      3  H   LIG    1        3.592  -2.141   3.654  0.00  0.00    +0.420 HD
ENDROOT
BRANCH   1   4
ATOM      4  C   LIG    1        2.678  -3.628   4.711  0.00  0.00    +0.150 C 
ATOM      5  C   LIG    1        1.244  -4.045   5.077  0.00  0.00    +0.050 C 
ATOM      6  C   LIG    1        1.674  -3.945   6.550  0.00  0.00    +0.070 C 
ATOM      7  C   LIG    1        2.748  -2.944   6.086  0.00  0.00    -0.090 C 
ATOM      8  C   LIG    1        2.268  -1.492   6.073  0.00  0.00    +0.060 C 
ATOM      9  C   LIG    1        4.094  -3.119   6.793  0.00  0.00    +0.060 C 
ENDBRANCH   1   4
BRANCH   1  10
ATOM     10  C   LIG    1        2.757  -3.441   2.321  0.00  0.00    +0.170 C 
ATOM     11  C   LIG    1        4.037  -4.276   2.233  0.00  0.00    +0.090 C 
BRANCH  10  12
ATOM     12  C   LIG    1        2.705  -2.464   1.145  0.00  0.00    +0.050 C 
BRANCH  12  13
ATOM     13  C   LIG    1        1.370  -1.717   1.161  0.00  0.00    +0.010 C 
BRANCH  13  14
ATOM     14  C   LIG    1        1.317  -0.740  -0.015  0.00  0.00    +0.060 C 
BRANCH  14  16
ATOM     15  C   LIG    1       -0.016   1.306   0.009  0.00  0.00    +0.020 C 
ATOM     16  C   LIG    1        0.002  -0.004   0.002  0.00  0.00    -0.060 C 
ENDBRANCH  14  16
ENDBRANCH  13  14
ENDBRANCH  12  13
ENDBRANCH  10  12
ENDBRANCH   1  10
TORSDOF 6
ENDMDL
MODEL      505
REMARK  Name = ZINC000388289714
REMARK                            x       y       z     vdW  Elec       q    Type
REMARK                         _______ _______ _______ _____ _____    ______ ____
ROOT
ATOM      1  N   LIG    1       -1.395  -1.163  -2.676  0.00  0.00    -0.500 N 
ATOM      2  H   LIG    1       -0.814  -0.363  -2.879  0.00  0.00    +0.420 HD
ATOM      3  H   LIG    1       -2.364  -0.881  -2.673  0.00  0.00    +0.420 HD
ENDROOT
BRANCH   1   4
ATOM      4  C   LIG    1       -1.039  -1.705  -1.358  0.00  0.00    +0.160 C 
BRANCH   4   5
ATOM      5  C   LIG    1       -1.719  -0.877  -0.265  0.00  0.00    +0.050 C 
ATOM      6  C   LIG    1       -3.238  -0.994  -0.408  0.00  0.00    +0.040 C 
ENDBRANCH   4   5
BRANCH   4   7
ATOM      7  C   LIG    1        0.479  -1.643  -1.174  0.00  0.00    +0.100 C 
BRANCH   7   9
ATOM      8  C   LIG    1        2.082  -2.161  -2.942  0.00  0.00    +0.060 C 
ATOM      9  C   LIG    1        1.140  -2.593  -2.139  0.00  0.00    -0.090 C 
ENDBRANCH   7   9
ENDBRANCH   4   7
ENDBRANCH   1   4
BRANCH   1  10
ATOM     10  C   LIG    1       -1.188  -2.193  -3.702  0.00  0.00    +0.160 C 
BRANCH  10  11
ATOM     11  C   LIG    1       -2.411  -3.110  -3.758  0.00  0.00    +0.060 C 
ATOM     12  C   LIG    1       -2.509  -3.910  -2.458  0.00  0.00    +0.030 C 
ENDBRANCH  10  11
BRANCH  10  13
ATOM     13  C   LIG    1       -0.988  -1.524  -5.063  0.00  0.00    +0.050 C 
BRANCH  13  14
ATOM     14  C   LIG    1        0.304  -0.705  -5.045  0.00  0.00    -0.010 C 
ATOM     15  C   LIG    1        0.503  -0.037  -6.407  0.00  0.00    +0.030 C 
ENDBRANCH  13  14
ENDBRANCH  10  13
ENDBRANCH   1  10
TORSDOF 8
ENDMDL
MODEL      506
REMARK  Name = ZINC000388289715
REMARK                            x       y       z     vdW  Elec       q    Type
REMARK                         _______ _______ _______ _____ _____    ______ ____
ROOT
ATOM      1  N   LIG    1        0.257  -3.494  -1.184  0.00  0.00    -0.500 N 
ATOM      2  H   LIG    1        0.402  -4.441  -0.870  0.00  0.00    +0.420 HD
ATOM      3  H   LIG    1        1.141  -3.007  -1.207  0.00  0.00    +0.420 HD
ENDROOT
BRANCH   1   4
ATOM      4  C   LIG    1       -0.656  -2.806  -0.261  0.00  0.00    +0.160 C 
BRANCH   4   5
ATOM      5  C   LIG    1       -0.410  -3.303   1.165  0.00  0.00    +0.050 C 
ATOM      6  C   LIG    1       -0.840  -4.767   1.276  0.00  0.00    +0.040 C 
ENDBRANCH   4   5
BRANCH   4   7
ATOM      7  C   LIG    1       -0.407  -1.298  -0.326  0.00  0.00    +0.090 C 
BRANCH   7   9
ATOM      8  C   LIG    1       -2.095   0.113  -1.384  0.00  0.00    +0.080 C 
ATOM      9  C   LIG    1       -1.101  -0.726  -1.535  0.00  0.00    -0.090 C 
ENDBRANCH   7   9
ENDBRANCH   4   7
ENDBRANCH   1   4
BRANCH   1  10
ATOM     10  C   LIG    1       -0.329  -3.509  -2.531  0.00  0.00    +0.160 C 
BRANCH  10  11
ATOM     11  C   LIG    1       -1.650  -4.279  -2.504  0.00  0.00    +0.040 C 
ATOM     12  C   LIG    1       -2.812  -3.294  -2.363  0.00  0.00    +0.040 C 
ENDBRANCH  10  11
BRANCH  10  13
ATOM     13  C   LIG    1        0.639  -4.191  -3.500  0.00  0.00    +0.050 C 
BRANCH  13  14
ATOM     14  C   LIG    1        1.914  -3.353  -3.622  0.00  0.00    -0.000 C 
ATOM     15  C   LIG    1        2.882  -4.035  -4.591  0.00  0.00    +0.030 C 
ENDBRANCH  13  14
ENDBRANCH  10  13
ENDBRANCH   1  10
TORSDOF 8
ENDMDL
MODEL      507
REMARK  Name = ZINC000388289716
REMARK                            x       y       z     vdW  Elec       q    Type
REMARK                         _______ _______ _______ _____ _____    ______ ____
ROOT
ATOM      1  N   LIG    1       -0.087  -3.657  -1.315  0.00  0.00    -0.500 N 
ATOM      2  H   LIG    1        0.007  -4.623  -1.042  0.00  0.00    +0.420 HD
ATOM      3  H   LIG    1        0.812  -3.203  -1.264  0.00  0.00    +0.420 HD
ENDROOT
BRANCH   1   4
ATOM      4  C   LIG    1       -1.028  -2.982  -0.411  0.00  0.00    +0.160 C 
BRANCH   4   5
ATOM      5  C   LIG    1       -0.852  -3.528   1.008  0.00  0.00    +0.050 C 
ATOM      6  C   LIG    1       -1.285  -4.995   1.047  0.00  0.00    +0.040 C 
ENDBRANCH   4   5
BRANCH   4   7
ATOM      7  C   LIG    1       -0.750  -1.477  -0.416  0.00  0.00    +0.090 C 
BRANCH   7   9
ATOM      8  C   LIG    1       -2.385  -0.009  -1.481  0.00  0.00    +0.080 C 
ATOM      9  C   LIG    1       -1.393  -0.853  -1.628  0.00  0.00    -0.090 C 
ENDBRANCH   7   9
ENDBRANCH   4   7
ENDBRANCH   1   4
BRANCH   1  10
ATOM     10  C   LIG    1       -0.595  -3.585  -2.692  0.00  0.00    +0.160 C 
BRANCH  10  11
ATOM     11  C   LIG    1        0.419  -4.224  -3.643  0.00  0.00    +0.050 C 
ATOM     12  C   LIG    1        1.698  -3.384  -3.665  0.00  0.00    +0.020 C 
ENDBRANCH  10  11
BRANCH  10  13
ATOM     13  C   LIG    1       -1.925  -4.335  -2.785  0.00  0.00    +0.050 C 
BRANCH  13  14
ATOM     14  C   LIG    1       -3.081  -3.345  -2.631  0.00  0.00    +0.020 C 
ATOM     15  C   LIG    1       -4.404  -4.111  -2.568  0.00  0.00    +0.030 C 
ENDBRANCH  13  14
ENDBRANCH  10  13
ENDBRANCH   1  10
TORSDOF 8
ENDMDL
MODEL      508
REMARK  Name = ZINC000388289717
REMARK                            x       y       z     vdW  Elec       q    Type
REMARK                         _______ _______ _______ _____ _____    ______ ____
ROOT
ATOM      1  N   LIG    1       -1.331  -0.851  -2.633  0.00  0.00    -0.500 N 
ATOM      2  H   LIG    1       -0.701  -0.102  -2.877  0.00  0.00    +0.420 HD
ATOM      3  H   LIG    1       -2.277  -0.500  -2.610  0.00  0.00    +0.420 HD
ENDROOT
BRANCH   1   4
ATOM      4  C   LIG    1       -0.973  -1.381  -1.310  0.00  0.00    +0.160 C 
BRANCH   4   5
ATOM      5  C   LIG    1       -1.599  -0.504  -0.223  0.00  0.00    +0.050 C 
ATOM      6  C   LIG    1       -3.124  -0.599  -0.307  0.00  0.00    +0.050 C 
ENDBRANCH   4   5
BRANCH   4   7
ATOM      7  C   LIG    1        0.549  -1.377  -1.155  0.00  0.00    +0.100 C 
BRANCH   7   9
ATOM      8  C   LIG    1        2.107  -2.016  -2.923  0.00  0.00    +0.060 C 
ATOM      9  C   LIG    1        1.153  -2.381  -2.103  0.00  0.00    -0.090 C 
ENDBRANCH   7   9
ENDBRANCH   4   7
ENDBRANCH   1   4
BRANCH   1  10
ATOM     10  C   LIG    1       -1.231  -1.922  -3.633  0.00  0.00    +0.160 C 
BRANCH  10  11
ATOM     11  C   LIG    1       -0.998  -1.309  -5.015  0.00  0.00    +0.050 C 
ATOM     12  C   LIG    1        0.355  -0.595  -5.034  0.00  0.00    +0.040 C 
ENDBRANCH  10  11
BRANCH  10  13
ATOM     13  C   LIG    1       -2.529  -2.731  -3.646  0.00  0.00    +0.060 C 
BRANCH  13  14
ATOM     14  C   LIG    1       -2.697  -3.448  -2.305  0.00  0.00    +0.000 C 
ATOM     15  C   LIG    1       -3.945  -4.334  -2.353  0.00  0.00    +0.030 C 
ENDBRANCH  13  14
ENDBRANCH  10  13
ENDBRANCH   1  10
TORSDOF 8
ENDMDL
MODEL      509
REMARK  Name = ZINC000388735894
REMARK                            x       y       z     vdW  Elec       q    Type
REMARK                         _______ _______ _______ _____ _____    ______ ____
ROOT
ATOM      1  C   LIG    1       -3.974  -4.272  -2.346  0.00  0.00    +0.160 C 
ATOM      2  C   LIG    1       -3.948  -5.324  -3.457  0.00  0.00    +0.090 C 
ENDROOT
BRANCH   1   3
ATOM      3  N   LIG    1       -5.095  -3.350  -2.571  0.00  0.00    -0.510 N 
ATOM      4  H   LIG    1       -5.025  -2.955  -3.497  0.00  0.00    +0.420 HD
ATOM      5  H   LIG    1       -5.063  -2.609  -1.887  0.00  0.00    +0.420 HD
BRANCH   3   6
ATOM      6  C   LIG    1       -6.363  -4.080  -2.444  0.00  0.00    +0.160 C 
ATOM      7  C   LIG    1       -6.526  -4.572  -1.005  0.00  0.00    +0.090 C 
BRANCH   6   8
ATOM      8  C   LIG    1       -7.525  -3.150  -2.800  0.00  0.00    +0.050 C 
ATOM      9  C   LIG    1       -7.429  -2.757  -4.276  0.00  0.00    +0.030 C 
ENDBRANCH   6   8
ENDBRANCH   3   6
ENDBRANCH   1   3
BRANCH   1  10
ATOM     10  C   LIG    1       -2.659  -3.489  -2.355  0.00  0.00    +0.050 C 
BRANCH  10  11
ATOM     11  C   LIG    1       -2.633  -2.524  -1.168  0.00  0.00    -0.000 C 
BRANCH  11  12
ATOM     12  C   LIG    1       -1.319  -1.741  -1.176  0.00  0.00    +0.020 C 
BRANCH  12  13
ATOM     13  C   LIG    1       -1.293  -0.775   0.010  0.00  0.00    +0.050 C 
BRANCH  13  15
ATOM     14  C   LIG    1       -0.016   1.306   0.009  0.00  0.00    +0.020 C 
ATOM     15  C   LIG    1        0.002  -0.004   0.002  0.00  0.00    -0.060 C 
ENDBRANCH  13  15
ENDBRANCH  12  13
ENDBRANCH  11  12
ENDBRANCH  10  11
ENDBRANCH   1  10
TORSDOF 8
ENDMDL
MODEL      510
REMARK  Name = ZINC000388735893
REMARK                            x       y       z     vdW  Elec       q    Type
REMARK                         _______ _______ _______ _____ _____    ______ ____
ROOT
ATOM      1  C   LIG    1       -3.924  -3.772  -1.410  0.00  0.00    +0.160 C 
ATOM      2  C   LIG    1       -3.429  -4.184  -2.798  0.00  0.00    +0.080 C 
ENDROOT
BRANCH   1   3
ATOM      3  N   LIG    1       -3.923  -4.942  -0.522  0.00  0.00    -0.510 N 
ATOM      4  H   LIG    1       -4.195  -4.660   0.407  0.00  0.00    +0.420 HD
ATOM      5  H   LIG    1       -2.998  -5.343  -0.495  0.00  0.00    +0.420 HD
BRANCH   3   6
ATOM      6  C   LIG    1       -4.874  -5.941  -1.028  0.00  0.00    +0.160 C 
ATOM      7  C   LIG    1       -4.758  -7.222  -0.200  0.00  0.00    +0.090 C 
BRANCH   6   8
ATOM      8  C   LIG    1       -6.298  -5.391  -0.919  0.00  0.00    +0.040 C 
ATOM      9  C   LIG    1       -6.651  -4.631  -2.199  0.00  0.00    +0.030 C 
ENDBRANCH   6   8
ENDBRANCH   3   6
ENDBRANCH   1   3
BRANCH   1  10
ATOM     10  C   LIG    1       -2.998  -2.697  -0.837  0.00  0.00    +0.050 C 
BRANCH  10  11
ATOM     11  C   LIG    1       -3.562  -2.195   0.494  0.00  0.00    -0.000 C 
BRANCH  11  12
ATOM     12  C   LIG    1       -2.636  -1.120   1.067  0.00  0.00    +0.020 C 
BRANCH  12  13
ATOM     13  C   LIG    1       -3.200  -0.619   2.399  0.00  0.00    +0.050 C 
BRANCH  13  15
ATOM     14  C   LIG    1       -2.767   1.619   3.272  0.00  0.00    +0.020 C 
ATOM     15  C   LIG    1       -2.288   0.440   2.963  0.00  0.00    -0.060 C 
ENDBRANCH  13  15
ENDBRANCH  12  13
ENDBRANCH  11  12
ENDBRANCH  10  11
ENDBRANCH   1  10
TORSDOF 8
ENDMDL
MODEL      511
REMARK  Name = ZINC000388736384
REMARK                            x       y       z     vdW  Elec       q    Type
REMARK                         _______ _______ _______ _____ _____    ______ ____
ROOT
ATOM      1  N   LIG    1        3.651  -4.165   2.339  0.00  0.00    -0.510 N 
ATOM      2  H   LIG    1        4.410  -3.505   2.256  0.00  0.00    +0.430 HD
ATOM      3  H   LIG    1        3.612  -4.739   1.510  0.00  0.00    +0.430 HD
ENDROOT
BRANCH   1   4
ATOM      4  C   LIG    1        2.384  -3.437   2.489  0.00  0.00    +0.250 C 
BRANCH   4   5
ATOM      5  C   LIG    1        2.097  -2.643   1.213  0.00  0.00    +0.030 C 
BRANCH   5   6
ATOM      6  C   LIG    1        0.778  -1.884   1.369  0.00  0.00    +0.050 C 
BRANCH   6   7
ATOM      7  C   LIG    1        0.491  -1.090   0.093  0.00  0.00    +0.060 C 
BRANCH   7   9
ATOM      8  C   LIG    1       -0.845   0.953   0.065  0.00  0.00    +0.020 C 
ATOM      9  C   LIG    1       -0.808  -0.343   0.247  0.00  0.00    -0.060 C 
ENDBRANCH   7   9
ENDBRANCH   6   7
ENDBRANCH   5   6
ENDBRANCH   4   5
ENDBRANCH   1   4
BRANCH   1  10
ATOM     10  C   LIG    1        3.869  -5.016   3.516  0.00  0.00    +0.170 C 
BRANCH  10  11
ATOM     11  C   LIG    1        4.059  -4.137   4.753  0.00  0.00    +0.030 C 
ATOM     12  C   LIG    1        4.164  -5.022   5.997  0.00  0.00    +0.060 C 
ENDBRANCH  10  11
BRANCH  10  13
ATOM     13  C   LIG    1        5.119  -5.872   3.302  0.00  0.00    +0.070 C 
BRANCH  13  14
ATOM     14  C   LIG    1        4.881  -6.840   2.140  0.00  0.00    +0.040 C 
BRANCH  14  15
ATOM     15  C   LIG    1        6.112  -7.683   1.929  0.00  0.00    -0.070 C 
ATOM     16  C   LIG    1        6.021  -8.990   1.941  0.00  0.00    +0.050 C 
ENDBRANCH  14  15
ENDBRANCH  13  14
ENDBRANCH  10  13
ENDBRANCH   1  10
TORSDOF 10
ENDMDL
MODEL      512
REMARK  Name = ZINC000388736385
REMARK                            x       y       z     vdW  Elec       q    Type
REMARK                         _______ _______ _______ _____ _____    ______ ____
ROOT
ATOM      1  N   LIG    1        4.112  -4.217   2.261  0.00  0.00    -0.510 N 
ATOM      2  H   LIG    1        4.829  -3.507   2.300  0.00  0.00    +0.430 HD
ATOM      3  H   LIG    1        4.282  -4.824   1.473  0.00  0.00    +0.430 HD
ENDROOT
BRANCH   1   4
ATOM      4  C   LIG    1        2.798  -3.578   2.113  0.00  0.00    +0.250 C 
BRANCH   4   5
ATOM      5  C   LIG    1        2.815  -2.652   0.894  0.00  0.00    +0.030 C 
BRANCH   5   6
ATOM      6  C   LIG    1        1.446  -1.987   0.740  0.00  0.00    +0.050 C 
BRANCH   6   7
ATOM      7  C   LIG    1        1.464  -1.062  -0.479  0.00  0.00    +0.060 C 
BRANCH   7   9
ATOM      8  C   LIG    1        0.024   0.900  -0.685  0.00  0.00    +0.020 C 
ATOM      9  C   LIG    1        0.115  -0.406  -0.631  0.00  0.00    -0.060 C 
ENDBRANCH   7   9
ENDBRANCH   6   7
ENDBRANCH   5   6
ENDBRANCH   4   5
ENDBRANCH   1   4
BRANCH   1  10
ATOM     10  C   LIG    1        4.136  -5.005   3.500  0.00  0.00    +0.170 C 
BRANCH  10  11
ATOM     11  C   LIG    1        3.151  -6.170   3.383  0.00  0.00    +0.030 C 
ATOM     12  C   LIG    1        3.073  -6.909   4.720  0.00  0.00    +0.060 C 
ENDBRANCH  10  11
BRANCH  10  13
ATOM     13  C   LIG    1        5.547  -5.552   3.729  0.00  0.00    +0.070 C 
BRANCH  13  14
ATOM     14  C   LIG    1        6.511  -4.389   3.970  0.00  0.00    +0.050 C 
BRANCH  14  15
ATOM     15  C   LIG    1        7.901  -4.928   4.196  0.00  0.00    -0.050 C 
ATOM     16  C   LIG    1        8.896  -4.505   3.456  0.00  0.00    +0.040 C 
ENDBRANCH  14  15
ENDBRANCH  13  14
ENDBRANCH  10  13
ENDBRANCH   1  10
TORSDOF 10
ENDMDL
MODEL      513
REMARK  Name = ZINC000388735892
REMARK                            x       y       z     vdW  Elec       q    Type
REMARK                         _______ _______ _______ _____ _____    ______ ____
ROOT
ATOM      1  C   LIG    1       -4.114  -4.371  -2.911  0.00  0.00    +0.150 C 
ATOM      2  C   LIG    1       -4.458  -5.345  -4.040  0.00  0.00    +0.090 C 
ENDROOT
BRANCH   1   3
ATOM      3  N   LIG    1       -5.187  -3.376  -2.779  0.00  0.00    -0.510 N 
ATOM      4  H   LIG    1       -5.364  -2.951  -3.677  0.00  0.00    +0.420 HD
ATOM      5  H   LIG    1       -4.907  -2.665  -2.119  0.00  0.00    +0.420 HD
BRANCH   3   6
ATOM      6  C   LIG    1       -6.409  -4.035  -2.299  0.00  0.00    +0.160 C 
ATOM      7  C   LIG    1       -7.632  -3.241  -2.763  0.00  0.00    +0.090 C 
BRANCH   6   8
ATOM      8  C   LIG    1       -6.390  -4.095  -0.771  0.00  0.00    +0.050 C 
ATOM      9  C   LIG    1       -5.250  -5.005  -0.310  0.00  0.00    +0.030 C 
ENDBRANCH   6   8
ENDBRANCH   3   6
ENDBRANCH   1   3
BRANCH   1  10
ATOM     10  C   LIG    1       -2.797  -3.661  -3.233  0.00  0.00    +0.050 C 
BRANCH  10  11
ATOM     11  C   LIG    1       -2.390  -2.781  -2.049  0.00  0.00    -0.000 C 
BRANCH  11  12
ATOM     12  C   LIG    1       -1.073  -2.072  -2.371  0.00  0.00    +0.020 C 
BRANCH  12  13
ATOM     13  C   LIG    1       -0.666  -1.192  -1.188  0.00  0.00    +0.050 C 
BRANCH  13  15
ATOM     14  C   LIG    1        0.708   0.812  -1.426  0.00  0.00    +0.020 C 
ATOM     15  C   LIG    1        0.631  -0.493  -1.504  0.00  0.00    -0.060 C 
ENDBRANCH  13  15
ENDBRANCH  12  13
ENDBRANCH  11  12
ENDBRANCH  10  11
ENDBRANCH   1  10
TORSDOF 8
ENDMDL
MODEL      514
REMARK  Name = ZINC000388735896
REMARK                            x       y       z     vdW  Elec       q    Type
REMARK                         _______ _______ _______ _____ _____    ______ ____
ROOT
ATOM      1  C   LIG    1       -3.974  -4.272  -2.346  0.00  0.00    +0.160 C 
ATOM      2  C   LIG    1       -4.055  -5.146  -3.600  0.00  0.00    +0.090 C 
ENDROOT
BRANCH   1   3
ATOM      3  N   LIG    1       -4.029  -5.124  -1.151  0.00  0.00    -0.510 N 
ATOM      4  H   LIG    1       -3.893  -4.557  -0.327  0.00  0.00    +0.420 HD
ATOM      5  H   LIG    1       -3.302  -5.822  -1.202  0.00  0.00    +0.420 HD
BRANCH   3   6
ATOM      6  C   LIG    1       -5.339  -5.785  -1.080  0.00  0.00    +0.160 C 
ATOM      7  C   LIG    1       -6.430  -4.732  -0.877  0.00  0.00    +0.090 C 
BRANCH   6   8
ATOM      8  C   LIG    1       -5.353  -6.766   0.094  0.00  0.00    +0.050 C 
ATOM      9  C   LIG    1       -4.347  -7.889  -0.169  0.00  0.00    +0.030 C 
ENDBRANCH   6   8
ENDBRANCH   3   6
ENDBRANCH   1   3
BRANCH   1  10
ATOM     10  C   LIG    1       -2.659  -3.489  -2.355  0.00  0.00    +0.050 C 
BRANCH  10  11
ATOM     11  C   LIG    1       -2.633  -2.524  -1.168  0.00  0.00    -0.000 C 
BRANCH  11  12
ATOM     12  C   LIG    1       -1.319  -1.741  -1.176  0.00  0.00    +0.020 C 
BRANCH  12  13
ATOM     13  C   LIG    1       -1.293  -0.775   0.010  0.00  0.00    +0.050 C 
BRANCH  13  15
ATOM     14  C   LIG    1       -0.016   1.306   0.009  0.00  0.00    +0.020 C 
ATOM     15  C   LIG    1        0.002  -0.004   0.002  0.00  0.00    -0.060 C 
ENDBRANCH  13  15
ENDBRANCH  12  13
ENDBRANCH  11  12
ENDBRANCH  10  11
ENDBRANCH   1  10
TORSDOF 8
ENDMDL
MODEL      515
REMARK  Name = ZINC000388813210
REMARK                            x       y       z     vdW  Elec       q    Type
REMARK                         _______ _______ _______ _____ _____    ______ ____
ROOT
ATOM      1  N   LIG    1       -3.905  -1.599  -1.232  0.00  0.00    -0.510 N 
ATOM      2  H   LIG    1       -4.044  -1.299  -2.185  0.00  0.00    +0.430 HD
ATOM      3  H   LIG    1       -3.791  -0.792  -0.638  0.00  0.00    +0.430 HD
ENDROOT
BRANCH   1   4
ATOM      4  C   LIG    1       -2.703  -2.440  -1.153  0.00  0.00    +0.170 C 
BRANCH   4   5
ATOM      5  C   LIG    1       -2.815  -3.586  -2.159  0.00  0.00    +0.030 C 
ATOM      6  C   LIG    1       -1.635  -4.543  -1.977  0.00  0.00    +0.060 C 
ENDBRANCH   4   5
BRANCH   4   7
ATOM      7  C   LIG    1       -1.469  -1.595  -1.477  0.00  0.00    +0.070 C 
BRANCH   7   8
ATOM      8  C   LIG    1       -1.286  -0.525  -0.399  0.00  0.00    +0.050 C 
BRANCH   8  10
ATOM      9  C   LIG    1       -0.174   1.609  -0.813  0.00  0.00    +0.040 C 
ATOM     10  C   LIG    1       -0.070   0.307  -0.718  0.00  0.00    -0.060 C 
ENDBRANCH   8  10
ENDBRANCH   7   8
ENDBRANCH   4   7
ENDBRANCH   1   4
BRANCH   1  11
ATOM     11  C   LIG    1       -5.073  -2.373  -0.787  0.00  0.00    +0.250 C 
BRANCH  11  12
ATOM     12  C   LIG    1       -6.301  -1.461  -0.742  0.00  0.00    +0.030 C 
BRANCH  12  13
ATOM     13  C   LIG    1       -7.517  -2.266  -0.279  0.00  0.00    +0.070 C 
BRANCH  13  14
ATOM     14  C   LIG    1       -8.745  -1.355  -0.234  0.00  0.00    -0.060 C 
ATOM     15  C   LIG    1       -9.901  -1.681  -1.181  0.00  0.00    +0.020 C 
ATOM     16  C   LIG    1      -10.043  -1.946   0.319  0.00  0.00    +0.020 C 
ENDBRANCH  13  14
ENDBRANCH  12  13
ENDBRANCH  11  12
ENDBRANCH   1  11
TORSDOF 9
ENDMDL
MODEL      516
REMARK  Name = ZINC000388813208
REMARK                            x       y       z     vdW  Elec       q    Type
REMARK                         _______ _______ _______ _____ _____    ______ ____
ROOT
ATOM      1  N   LIG    1       -2.528  -3.394  -0.029  0.00  0.00    -0.510 N 
ATOM      2  H   LIG    1       -2.482  -2.817   0.798  0.00  0.00    +0.430 HD
ATOM      3  H   LIG    1       -1.682  -3.937  -0.108  0.00  0.00    +0.430 HD
ENDROOT
BRANCH   1   4
ATOM      4  C   LIG    1       -2.673  -2.538  -1.214  0.00  0.00    +0.170 C 
BRANCH   4   5
ATOM      5  C   LIG    1       -2.586  -3.398  -2.477  0.00  0.00    +0.030 C 
ATOM      6  C   LIG    1       -2.815  -2.519  -3.709  0.00  0.00    +0.060 C 
ENDBRANCH   4   5
BRANCH   4   7
ATOM      7  C   LIG    1       -1.555  -1.494  -1.230  0.00  0.00    +0.070 C 
BRANCH   7   8
ATOM      8  C   LIG    1       -1.716  -0.556  -0.032  0.00  0.00    +0.040 C 
BRANCH   8  10
ATOM      9  C   LIG    1       -0.910   1.748  -0.023  0.00  0.00    +0.050 C 
ATOM     10  C   LIG    1       -0.615   0.472  -0.047  0.00  0.00    -0.070 C 
ENDBRANCH   8  10
ENDBRANCH   7   8
ENDBRANCH   4   7
ENDBRANCH   1   4
BRANCH   1  11
ATOM     11  C   LIG    1       -3.683  -4.297   0.068  0.00  0.00    +0.250 C 
BRANCH  11  12
ATOM     12  C   LIG    1       -3.489  -5.247   1.251  0.00  0.00    +0.030 C 
BRANCH  12  13
ATOM     13  C   LIG    1       -4.692  -6.188   1.351  0.00  0.00    +0.060 C 
BRANCH  13  14
ATOM     14  C   LIG    1       -4.499  -7.138   2.534  0.00  0.00    -0.060 C 
ATOM     15  C   LIG    1       -5.500  -7.043   3.688  0.00  0.00    +0.020 C 
ATOM     16  C   LIG    1       -5.543  -8.239   2.734  0.00  0.00    +0.020 C 
ENDBRANCH  13  14
ENDBRANCH  12  13
ENDBRANCH  11  12
ENDBRANCH   1  11
TORSDOF 9
ENDMDL
MODEL      517
REMARK  Name = ZINC000388887962
REMARK                            x       y       z     vdW  Elec       q    Type
REMARK                         _______ _______ _______ _____ _____    ______ ____
ROOT
ATOM      1  N   LIG    1        0.141  -2.719   1.123  0.00  0.00    -0.510 N 
ATOM      2  H   LIG    1        0.214  -3.422   0.403  0.00  0.00    +0.420 HD
ATOM      3  H   LIG    1       -0.639  -2.111   0.922  0.00  0.00    +0.420 HD
ENDROOT
BRANCH   1   4
ATOM      4  C   LIG    1       -0.067  -3.370   2.423  0.00  0.00    +0.160 C 
ATOM      5  C   LIG    1       -0.327  -2.305   3.491  0.00  0.00    +0.040 C 
ATOM      6  C   LIG    1       -0.544  -2.983   4.845  0.00  0.00    +0.030 C 
ATOM      7  C   LIG    1       -1.748  -3.923   4.758  0.00  0.00    +0.020 C 
ATOM      8  C   LIG    1       -1.488  -4.987   3.690  0.00  0.00    +0.050 C 
ATOM      9  C   LIG    1       -1.272  -4.309   2.336  0.00  0.00    -0.020 C 
ATOM     10  C   LIG    1       -2.519  -3.506   1.962  0.00  0.00    +0.030 C 
ENDBRANCH   1   4
BRANCH   1  11
ATOM     11  C   LIG    1        1.379  -1.929   1.164  0.00  0.00    +0.170 C 
BRANCH  11  12
ATOM     12  C   LIG    1        2.577  -2.865   1.333  0.00  0.00    +0.030 C 
ATOM     13  C   LIG    1        3.850  -2.037   1.516  0.00  0.00    +0.060 C 
ENDBRANCH  11  12
BRANCH  11  14
ATOM     14  C   LIG    1        1.526  -1.144  -0.141  0.00  0.00    +0.100 C 
BRANCH  14  16
ATOM     15  C   LIG    1        0.692   1.132  -0.431  0.00  0.00    +0.090 C 
ATOM     16  C   LIG    1        0.412  -0.135  -0.249  0.00  0.00    -0.110 C 
ENDBRANCH  14  16
ENDBRANCH  11  14
ENDBRANCH   1  11
TORSDOF 5
ENDMDL
MODEL      518
REMARK  Name = ZINC000388887964
REMARK                            x       y       z     vdW  Elec       q    Type
REMARK                         _______ _______ _______ _____ _____    ______ ____
ROOT
ATOM      1  N   LIG    1        0.491  -2.543   0.687  0.00  0.00    -0.510 N 
ATOM      2  H   LIG    1        0.738  -2.902  -0.223  0.00  0.00    +0.420 HD
ATOM      3  H   LIG    1       -0.358  -2.002   0.617  0.00  0.00    +0.420 HD
ENDROOT
BRANCH   1   4
ATOM      4  C   LIG    1        0.281  -3.663   1.615  0.00  0.00    +0.160 C 
ATOM      5  C   LIG    1        1.556  -4.505   1.694  0.00  0.00    +0.040 C 
ATOM      6  C   LIG    1        1.338  -5.672   2.659  0.00  0.00    +0.030 C 
ATOM      7  C   LIG    1        0.183  -6.541   2.157  0.00  0.00    +0.020 C 
ATOM      8  C   LIG    1       -1.092  -5.699   2.078  0.00  0.00    +0.050 C 
ATOM      9  C   LIG    1       -0.874  -4.532   1.112  0.00  0.00    -0.020 C 
ATOM     10  C   LIG    1       -2.149  -3.690   1.033  0.00  0.00    +0.040 C 
ENDBRANCH   1   4
BRANCH   1  11
ATOM     11  C   LIG    1        1.576  -1.689   1.188  0.00  0.00    +0.160 C 
BRANCH  11  12
ATOM     12  C   LIG    1        1.933  -0.644   0.129  0.00  0.00    +0.050 C 
ATOM     13  C   LIG    1        2.579  -1.337  -1.073  0.00  0.00    +0.030 C 
ENDBRANCH  11  12
BRANCH  11  14
ATOM     14  C   LIG    1        1.121  -0.984   2.467  0.00  0.00    +0.090 C 
BRANCH  14  16
ATOM     15  C   LIG    1        2.275  -1.498   4.557  0.00  0.00    +0.080 C 
ATOM     16  C   LIG    1        1.400  -1.869   3.655  0.00  0.00    -0.090 C 
ENDBRANCH  14  16
ENDBRANCH  11  14
ENDBRANCH   1  11
TORSDOF 5
ENDMDL
MODEL      519
REMARK  Name = ZINC000388887963
REMARK                            x       y       z     vdW  Elec       q    Type
REMARK                         _______ _______ _______ _____ _____    ______ ____
ROOT
ATOM      1  N   LIG    1        0.197  -2.738   1.135  0.00  0.00    -0.510 N 
ATOM      2  H   LIG    1        0.285  -3.423   0.399  0.00  0.00    +0.420 HD
ATOM      3  H   LIG    1       -0.608  -2.156   0.958  0.00  0.00    +0.420 HD
ENDROOT
BRANCH   1   4
ATOM      4  C   LIG    1        0.032  -3.422   2.424  0.00  0.00    +0.160 C 
ATOM      5  C   LIG    1       -0.245  -2.390   3.518  0.00  0.00    +0.040 C 
ATOM      6  C   LIG    1       -0.417  -3.103   4.861  0.00  0.00    +0.030 C 
ATOM      7  C   LIG    1       -1.591  -4.080   4.773  0.00  0.00    +0.020 C 
ATOM      8  C   LIG    1       -1.314  -5.113   3.679  0.00  0.00    +0.050 C 
ATOM      9  C   LIG    1       -1.142  -4.400   2.336  0.00  0.00    -0.020 C 
ATOM     10  C   LIG    1       -0.865  -5.432   1.242  0.00  0.00    +0.040 C 
ENDBRANCH   1   4
BRANCH   1  11
ATOM     11  C   LIG    1        1.405  -1.903   1.175  0.00  0.00    +0.170 C 
BRANCH  11  12
ATOM     12  C   LIG    1        2.639  -2.798   1.303  0.00  0.00    +0.030 C 
ATOM     13  C   LIG    1        3.884  -1.928   1.486  0.00  0.00    +0.060 C 
ENDBRANCH  11  12
BRANCH  11  14
ATOM     14  C   LIG    1        1.501  -1.083  -0.114  0.00  0.00    +0.100 C 
BRANCH  14  16
ATOM     15  C   LIG    1        0.578   1.166  -0.336  0.00  0.00    +0.090 C 
ATOM     16  C   LIG    1        0.349  -0.114  -0.180  0.00  0.00    -0.110 C 
ENDBRANCH  14  16
ENDBRANCH  11  14
ENDBRANCH   1  11
TORSDOF 5
ENDMDL
MODEL      520
REMARK  Name = ZINC000388878926
REMARK                            x       y       z     vdW  Elec       q    Type
REMARK                         _______ _______ _______ _____ _____    ______ ____
ROOT
ATOM      1  N   LIG    1        0.343  -2.753   0.984  0.00  0.00    -0.510 N 
ATOM      2  H   LIG    1        0.560  -3.305   0.168  0.00  0.00    +0.420 HD
ATOM      3  H   LIG    1       -0.558  -2.315   0.864  0.00  0.00    +0.420 HD
ENDROOT
BRANCH   1   4
ATOM      4  C   LIG    1        1.370  -1.717   1.161  0.00  0.00    +0.170 C 
ATOM      5  C   LIG    1        2.751  -2.373   1.218  0.00  0.00    +0.090 C 
BRANCH   4   6
ATOM      6  C   LIG    1        1.317  -0.740  -0.015  0.00  0.00    +0.090 C 
BRANCH   6   8
ATOM      7  C   LIG    1       -0.016   1.306   0.009  0.00  0.00    +0.090 C 
ATOM      8  C   LIG    1        0.002  -0.004   0.002  0.00  0.00    -0.110 C 
ENDBRANCH   6   8
ENDBRANCH   4   6
ENDBRANCH   1   4
BRANCH   1   9
ATOM      9  C   LIG    1        0.312  -3.620   2.168  0.00  0.00    +0.160 C 
ATOM     10  C   LIG    1       -0.138  -2.808   3.384  0.00  0.00    +0.080 C 
BRANCH   9  11
ATOM     11  C   LIG    1       -0.667  -4.771   1.933  0.00  0.00    -0.020 C 
ATOM     12  C   LIG    1       -2.066  -4.206   1.678  0.00  0.00    +0.040 C 
BRANCH  11  13
ATOM     13  C   LIG    1       -0.699  -5.675   3.167  0.00  0.00    +0.030 C 
BRANCH  13  14
ATOM     14  C   LIG    1       -1.583  -6.893   2.885  0.00  0.00    +0.020 C 
BRANCH  14  15
ATOM     15  C   LIG    1       -1.614  -7.796   4.119  0.00  0.00    -0.010 C 
ATOM     16  C   LIG    1       -2.497  -9.014   3.837  0.00  0.00    +0.020 C 
ENDBRANCH  14  15
ENDBRANCH  13  14
ENDBRANCH  11  13
ENDBRANCH   9  11
ENDBRANCH   1   9
TORSDOF 8
ENDMDL
MODEL      521
REMARK  Name = ZINC000388878948
REMARK                            x       y       z     vdW  Elec       q    Type
REMARK                         _______ _______ _______ _____ _____    ______ ____
ROOT
ATOM      1  N   LIG    1        0.368  -2.750   1.084  0.00  0.00    -0.510 N 
ATOM      2  H   LIG    1        1.107  -2.072   1.197  0.00  0.00    +0.420 HD
ATOM      3  H   LIG    1        0.565  -3.331   0.283  0.00  0.00    +0.420 HD
ENDROOT
BRANCH   1   4
ATOM      4  C   LIG    1       -0.909  -2.054   0.882  0.00  0.00    +0.170 C 
ATOM      5  C   LIG    1       -1.145  -1.076   2.035  0.00  0.00    +0.090 C 
BRANCH   4   6
ATOM      6  C   LIG    1       -0.867  -1.284  -0.439  0.00  0.00    +0.090 C 
BRANCH   6   8
ATOM      7  C   LIG    1       -1.635  -2.225  -2.557  0.00  0.00    +0.090 C 
ATOM      8  C   LIG    1       -0.758  -2.257  -1.585  0.00  0.00    -0.110 C 
ENDBRANCH   6   8
ENDBRANCH   4   6
ENDBRANCH   1   4
BRANCH   1   9
ATOM      9  C   LIG    1        0.284  -3.588   2.288  0.00  0.00    +0.160 C 
ATOM     10  C   LIG    1        1.660  -4.186   2.590  0.00  0.00    +0.090 C 
BRANCH   9  11
ATOM     11  C   LIG    1       -0.722  -4.717   2.054  0.00  0.00    -0.020 C 
ATOM     12  C   LIG    1       -0.203  -5.642   0.952  0.00  0.00    +0.050 C 
BRANCH  11  13
ATOM     13  C   LIG    1       -0.902  -5.515   3.347  0.00  0.00    +0.040 C 
BRANCH  13  14
ATOM     14  C   LIG    1       -1.999  -6.564   3.150  0.00  0.00    +0.010 C 
BRANCH  14  15
ATOM     15  C   LIG    1       -2.179  -7.362   4.443  0.00  0.00    -0.010 C 
ATOM     16  C   LIG    1       -3.276  -8.410   4.246  0.00  0.00    +0.010 C 
ENDBRANCH  14  15
ENDBRANCH  13  14
ENDBRANCH  11  13
ENDBRANCH   9  11
ENDBRANCH   1   9
TORSDOF 8
ENDMDL
MODEL      522
REMARK  Name = ZINC000388831667
REMARK                            x       y       z     vdW  Elec       q    Type
REMARK                         _______ _______ _______ _____ _____    ______ ____
ROOT
ATOM      1  C   LIG    1        2.651  -2.392   1.220  0.00  0.00    +0.170 C 
ENDROOT
BRANCH   1   2
ATOM      2  C   LIG    1        2.467  -3.300   2.437  0.00  0.00    -0.010 C 
ATOM      3  C   LIG    1        3.712  -4.172   2.616  0.00  0.00    +0.040 C 
ATOM      4  C   LIG    1        3.529  -5.080   3.833  0.00  0.00    +0.020 C 
ATOM      5  C   LIG    1        3.323  -4.222   5.083  0.00  0.00    +0.010 C 
ATOM      6  C   LIG    1        2.078  -3.351   4.905  0.00  0.00    +0.020 C 
ATOM      7  C   LIG    1        2.261  -2.443   3.687  0.00  0.00    +0.010 C 
ENDBRANCH   1   2
BRANCH   1   8
ATOM      8  N   LIG    1        1.455  -1.556   1.048  0.00  0.00    -0.510 N 
ATOM      9  H   LIG    1        1.327  -0.981   1.868  0.00  0.00    +0.430 HD
ATOM     10  H   LIG    1        1.571  -0.965   0.238  0.00  0.00    +0.430 HD
BRANCH   8  11
ATOM     11  C   LIG    1        0.279  -2.415   0.864  0.00  0.00    +0.290 C 
BRANCH  11  13
ATOM     12  C   LIG    1       -1.725  -1.695  -0.331  0.00  0.00    +0.130 C 
ATOM     13  C   LIG    1       -0.952  -1.557   0.717  0.00  0.00    -0.110 C 
ENDBRANCH  11  13
ENDBRANCH   8  11
ENDBRANCH   1   8
BRANCH   1  14
ATOM     14  C   LIG    1        2.856  -3.250  -0.030  0.00  0.00    +0.060 C 
BRANCH  14  15
ATOM     15  C   LIG    1        3.122  -2.343  -1.233  0.00  0.00    -0.000 C 
ATOM     16  C   LIG    1        3.454  -3.201  -2.456  0.00  0.00    +0.030 C 
ENDBRANCH  14  15
ENDBRANCH   1  14
TORSDOF 6
ENDMDL
MODEL      523
REMARK  Name = ZINC000388831669
REMARK                            x       y       z     vdW  Elec       q    Type
REMARK                         _______ _______ _______ _____ _____    ______ ____
ROOT
ATOM      1  C   LIG    1        2.596  -2.478   1.027  0.00  0.00    +0.170 C 
ENDROOT
BRANCH   1   2
ATOM      2  C   LIG    1        2.596  -3.682   1.971  0.00  0.00    +0.010 C 
ATOM      3  C   LIG    1        2.395  -3.202   3.410  0.00  0.00    +0.010 C 
ATOM      4  C   LIG    1        2.395  -4.406   4.354  0.00  0.00    +0.020 C 
ATOM      5  C   LIG    1        1.258  -5.355   3.970  0.00  0.00    +0.000 C 
ATOM      6  C   LIG    1        1.459  -5.835   2.531  0.00  0.00    +0.020 C 
ATOM      7  C   LIG    1        1.459  -4.631   1.587  0.00  0.00    +0.010 C 
ENDBRANCH   1   2
BRANCH   1   8
ATOM      8  N   LIG    1        1.362  -1.705   1.220  0.00  0.00    -0.510 N 
ATOM      9  H   LIG    1        0.564  -2.314   1.116  0.00  0.00    +0.430 HD
ATOM     10  H   LIG    1        1.359  -1.301   2.144  0.00  0.00    +0.430 HD
BRANCH   8  11
ATOM     11  C   LIG    1        1.294  -0.634   0.216  0.00  0.00    +0.300 C 
BRANCH  11  13
ATOM     12  C   LIG    1       -0.064   1.376   0.501  0.00  0.00    +0.130 C 
ATOM     13  C   LIG    1       -0.030   0.077   0.330  0.00  0.00    -0.110 C 
ENDBRANCH  11  13
ENDBRANCH   8  11
ENDBRANCH   1   8
BRANCH   1  14
ATOM     14  C   LIG    1        3.805  -1.592   1.331  0.00  0.00    +0.030 C 
BRANCH  14  15
ATOM     15  C   LIG    1        5.091  -2.354   1.003  0.00  0.00    +0.030 C 
ATOM     16  C   LIG    1        6.294  -1.426   1.183  0.00  0.00    +0.030 C 
ENDBRANCH  14  15
ENDBRANCH   1  14
TORSDOF 6
ENDMDL
MODEL      524
REMARK  Name = ZINC000388878928
REMARK                            x       y       z     vdW  Elec       q    Type
REMARK                         _______ _______ _______ _____ _____    ______ ____
ROOT
ATOM      1  N   LIG    1        0.343  -2.753   0.984  0.00  0.00    -0.510 N 
ATOM      2  H   LIG    1        0.560  -3.305   0.168  0.00  0.00    +0.420 HD
ATOM      3  H   LIG    1       -0.558  -2.315   0.864  0.00  0.00    +0.420 HD
ENDROOT
BRANCH   1   4
ATOM      4  C   LIG    1        1.370  -1.717   1.161  0.00  0.00    +0.170 C 
ATOM      5  C   LIG    1        2.751  -2.373   1.218  0.00  0.00    +0.090 C 
BRANCH   4   6
ATOM      6  C   LIG    1        1.317  -0.740  -0.015  0.00  0.00    +0.090 C 
BRANCH   6   8
ATOM      7  C   LIG    1       -0.016   1.306   0.009  0.00  0.00    +0.090 C 
ATOM      8  C   LIG    1        0.002  -0.004   0.002  0.00  0.00    -0.110 C 
ENDBRANCH   6   8
ENDBRANCH   4   6
ENDBRANCH   1   4
BRANCH   1   9
ATOM      9  C   LIG    1        0.312  -3.620   2.168  0.00  0.00    +0.160 C 
ATOM     10  C   LIG    1       -0.138  -2.808   3.384  0.00  0.00    +0.080 C 
BRANCH   9  11
ATOM     11  C   LIG    1       -0.667  -4.771   1.933  0.00  0.00    -0.020 C 
ATOM     12  C   LIG    1       -0.217  -5.584   0.717  0.00  0.00    +0.040 C 
BRANCH  11  13
ATOM     13  C   LIG    1       -0.699  -5.675   3.167  0.00  0.00    +0.030 C 
BRANCH  13  14
ATOM     14  C   LIG    1       -1.769  -6.754   2.981  0.00  0.00    +0.020 C 
BRANCH  14  15
ATOM     15  C   LIG    1       -1.800  -7.658   4.215  0.00  0.00    -0.010 C 
ATOM     16  C   LIG    1       -2.870  -8.736   4.030  0.00  0.00    +0.020 C 
ENDBRANCH  14  15
ENDBRANCH  13  14
ENDBRANCH  11  13
ENDBRANCH   9  11
ENDBRANCH   1   9
TORSDOF 8
ENDMDL
MODEL      525
REMARK  Name = ZINC000388887965
REMARK                            x       y       z     vdW  Elec       q    Type
REMARK                         _______ _______ _______ _____ _____    ______ ____
ROOT
ATOM      1  N   LIG    1        0.492  -2.548   0.681  0.00  0.00    -0.510 N 
ATOM      2  H   LIG    1        0.753  -2.899  -0.228  0.00  0.00    +0.420 HD
ATOM      3  H   LIG    1       -0.366  -2.022   0.604  0.00  0.00    +0.420 HD
ENDROOT
BRANCH   1   4
ATOM      4  C   LIG    1        0.294  -3.675   1.603  0.00  0.00    +0.160 C 
ATOM      5  C   LIG    1        1.575  -4.508   1.671  0.00  0.00    +0.040 C 
ATOM      6  C   LIG    1        1.370  -5.681   2.631  0.00  0.00    +0.030 C 
ATOM      7  C   LIG    1        0.218  -6.556   2.129  0.00  0.00    +0.020 C 
ATOM      8  C   LIG    1       -1.063  -5.722   2.061  0.00  0.00    +0.050 C 
ATOM      9  C   LIG    1       -0.857  -4.548   1.101  0.00  0.00    -0.020 C 
ATOM     10  C   LIG    1       -0.522  -5.083  -0.293  0.00  0.00    +0.040 C 
ENDBRANCH   1   4
BRANCH   1  11
ATOM     11  C   LIG    1        1.556  -1.676   1.194  0.00  0.00    +0.160 C 
BRANCH  11  12
ATOM     12  C   LIG    1        1.905  -0.623   0.141  0.00  0.00    +0.050 C 
ATOM     13  C   LIG    1        2.573  -1.301  -1.057  0.00  0.00    +0.020 C 
ENDBRANCH  11  12
BRANCH  11  14
ATOM     14  C   LIG    1        1.076  -0.981   2.470  0.00  0.00    +0.090 C 
BRANCH  14  16
ATOM     15  C   LIG    1        2.228  -1.470   4.567  0.00  0.00    +0.080 C 
ATOM     16  C   LIG    1        1.367  -1.860   3.660  0.00  0.00    -0.090 C 
ENDBRANCH  14  16
ENDBRANCH  11  14
ENDBRANCH   1  11
TORSDOF 5
ENDMDL
MODEL      526
REMARK  Name = ZINC000388878939
REMARK                            x       y       z     vdW  Elec       q    Type
REMARK                         _______ _______ _______ _____ _____    ______ ____
ROOT
ATOM      1  N   LIG    1        0.468  -2.782   0.821  0.00  0.00    -0.500 N 
ATOM      2  H   LIG    1        0.697  -3.306  -0.010  0.00  0.00    +0.420 HD
ATOM      3  H   LIG    1       -0.438  -2.352   0.709  0.00  0.00    +0.420 HD
ENDROOT
BRANCH   1   4
ATOM      4  C   LIG    1        1.482  -1.742   1.039  0.00  0.00    +0.160 C 
ATOM      5  C   LIG    1        1.631  -0.902  -0.231  0.00  0.00    +0.090 C 
BRANCH   4   6
ATOM      6  C   LIG    1        1.048  -0.842   2.197  0.00  0.00    +0.090 C 
BRANCH   6   8
ATOM      7  C   LIG    1        2.420  -0.801   4.216  0.00  0.00    +0.080 C 
ATOM      8  C   LIG    1        1.525  -1.433   3.499  0.00  0.00    -0.100 C 
ENDBRANCH   6   8
ENDBRANCH   4   6
ENDBRANCH   1   4
BRANCH   1   9
ATOM      9  C   LIG    1        0.439  -3.688   1.978  0.00  0.00    +0.160 C 
ATOM     10  C   LIG    1        1.813  -4.338   2.151  0.00  0.00    +0.090 C 
BRANCH   9  11
ATOM     11  C   LIG    1       -0.614  -4.773   1.750  0.00  0.00    -0.020 C 
ATOM     12  C   LIG    1       -1.988  -4.123   1.578  0.00  0.00    +0.040 C 
BRANCH  11  13
ATOM     13  C   LIG    1       -0.644  -5.716   2.955  0.00  0.00    +0.030 C 
BRANCH  13  14
ATOM     14  C   LIG    1       -1.607  -6.872   2.675  0.00  0.00    +0.020 C 
BRANCH  14  15
ATOM     15  C   LIG    1       -1.637  -7.814   3.880  0.00  0.00    -0.010 C 
ATOM     16  C   LIG    1       -2.599  -8.970   3.599  0.00  0.00    +0.020 C 
ENDBRANCH  14  15
ENDBRANCH  13  14
ENDBRANCH  11  13
ENDBRANCH   9  11
ENDBRANCH   1   9
TORSDOF 8
ENDMDL
MODEL      527
REMARK  Name = ZINC001176798508
REMARK                            x       y       z     vdW  Elec       q    Type
REMARK                         _______ _______ _______ _____ _____    ______ ____
ROOT
ATOM      1  N   LIG    1        2.844  -3.418   2.195  0.00  0.00    -0.380 N 
ATOM      2  H   LIG    1        2.606  -3.099   3.123  0.00  0.00    +0.420 HD
ENDROOT
BRANCH   1   3
ATOM      3  C   LIG    1        4.235  -3.888   2.181  0.00  0.00    +0.160 C 
ATOM      4  C   LIG    1        4.620  -4.302   0.759  0.00  0.00    +0.080 C 
BRANCH   3   5
ATOM      5  C   LIG    1        5.158  -2.762   2.651  0.00  0.00    -0.010 C 
ATOM      6  C   LIG    1        4.707  -2.273   4.029  0.00  0.00    +0.040 C 
BRANCH   5   7
ATOM      7  C   LIG    1        6.594  -3.283   2.741  0.00  0.00    +0.030 C 
ATOM      8  C   LIG    1        7.535  -2.128   3.090  0.00  0.00    +0.030 C 
ENDBRANCH   5   7
ENDBRANCH   3   5
ENDBRANCH   1   3
BRANCH   1   9
ATOM      9  C   LIG    1        1.951  -4.521   1.813  0.00  0.00    +0.240 C 
ATOM     10  C   LIG    1        1.999  -5.611   2.885  0.00  0.00    +0.080 C 
ENDBRANCH   1   9
BRANCH   1  11
ATOM     11  C   LIG    1        2.691  -2.311   1.242  0.00  0.00    +0.240 C 
BRANCH  11  12
ATOM     12  C   LIG    1        1.275  -1.740   1.346  0.00  0.00    +0.040 C 
BRANCH  12  13
ATOM     13  C   LIG    1        1.115  -0.588   0.353  0.00  0.00    +0.070 C 
BRANCH  13  15
ATOM     14  C   LIG    1       -0.455   1.252   0.686  0.00  0.00    +0.030 C 
ATOM     15  C   LIG    1       -0.279  -0.025   0.456  0.00  0.00    -0.070 C 
ENDBRANCH  13  15
ENDBRANCH  12  13
ENDBRANCH  11  12
ENDBRANCH   1  11
TORSDOF 8
ENDMDL
MODEL      528
REMARK  Name = ZINC001176798505
REMARK                            x       y       z     vdW  Elec       q    Type
REMARK                         _______ _______ _______ _____ _____    ______ ____
ROOT
ATOM      1  N   LIG    1        3.093  -3.450   2.195  0.00  0.00    -0.380 N 
ATOM      2  H   LIG    1        3.236  -2.793   2.947  0.00  0.00    +0.420 HD
ENDROOT
BRANCH   1   3
ATOM      3  C   LIG    1        4.259  -4.338   2.092  0.00  0.00    +0.160 C 
ATOM      4  C   LIG    1        5.526  -3.559   2.453  0.00  0.00    +0.080 C 
BRANCH   3   5
ATOM      5  C   LIG    1        4.375  -4.865   0.661  0.00  0.00    -0.010 C 
ATOM      6  C   LIG    1        3.186  -5.779   0.356  0.00  0.00    +0.040 C 
BRANCH   5   7
ATOM      7  C   LIG    1        5.677  -5.655   0.512  0.00  0.00    +0.030 C 
ATOM      8  C   LIG    1        5.854  -6.076  -0.948  0.00  0.00    +0.030 C 
ENDBRANCH   5   7
ENDBRANCH   3   5
ENDBRANCH   1   3
BRANCH   1   9
ATOM      9  C   LIG    1        1.891  -4.250   2.464  0.00  0.00    +0.230 C 
ATOM     10  C   LIG    1        2.002  -4.885   3.851  0.00  0.00    +0.080 C 
ENDBRANCH   1   9
BRANCH   1  11
ATOM     11  C   LIG    1        2.922  -2.719   0.932  0.00  0.00    +0.250 C 
BRANCH  11  12
ATOM     12  C   LIG    1        1.816  -1.675   1.093  0.00  0.00    +0.040 C 
BRANCH  12  13
ATOM     13  C   LIG    1        1.638  -0.913  -0.223  0.00  0.00    +0.070 C 
BRANCH  13  15
ATOM     14  C   LIG    1        0.790   1.373  -0.336  0.00  0.00    +0.030 C 
ATOM     15  C   LIG    1        0.547   0.115  -0.064  0.00  0.00    -0.070 C 
ENDBRANCH  13  15
ENDBRANCH  12  13
ENDBRANCH  11  12
ENDBRANCH   1  11
TORSDOF 8
ENDMDL
MODEL      529
REMARK  Name = ZINC000389236927
REMARK                            x       y       z     vdW  Elec       q    Type
REMARK                         _______ _______ _______ _____ _____    ______ ____
ROOT
ATOM      1  N   LIG    1       -1.810  -4.517  -2.807  0.00  0.00    -0.510 N 
ATOM      2  H   LIG    1       -1.244  -5.352  -2.781  0.00  0.00    +0.430 HD
ATOM      3  H   LIG    1       -1.705  -4.068  -3.704  0.00  0.00    +0.430 HD
ENDROOT
BRANCH   1   4
ATOM      4  C   LIG    1       -1.377  -3.599  -1.746  0.00  0.00    +0.170 C 
ATOM      5  C   LIG    1       -1.418  -4.321  -0.398  0.00  0.00    +0.080 C 
BRANCH   4   6
ATOM      6  C   LIG    1        0.051  -3.129  -2.029  0.00  0.00    -0.010 C 
ATOM      7  C   LIG    1        0.093  -2.406  -3.377  0.00  0.00    +0.040 C 
BRANCH   6   8
ATOM      8  C   LIG    1        0.502  -2.172  -0.923  0.00  0.00    +0.080 C 
BRANCH   8  10
ATOM      9  C   LIG    1        2.301  -0.547  -1.217  0.00  0.00    +0.030 C 
ATOM     10  C   LIG    1        1.949  -1.806  -1.135  0.00  0.00    -0.070 C 
ENDBRANCH   8  10
ENDBRANCH   6   8
ENDBRANCH   4   6
ENDBRANCH   1   4
BRANCH   1  11
ATOM     11  C   LIG    1       -3.220  -4.874  -2.600  0.00  0.00    +0.250 C 
BRANCH  11  12
ATOM     12  C   LIG    1       -3.671  -5.831  -3.706  0.00  0.00    +0.070 C 
BRANCH  12  13
ATOM     13  C   LIG    1       -5.117  -6.197  -3.494  0.00  0.00    -0.080 C 
ATOM     14  C   LIG    1       -6.001  -5.944  -4.428  0.00  0.00    -0.080 C 
ATOM     15  C   LIG    1       -7.420  -6.428  -4.274  0.00  0.00    +0.090 C 
ATOM     16  C   LIG    1       -5.598  -5.170  -5.657  0.00  0.00    +0.080 C 
ENDBRANCH  12  13
ENDBRANCH  11  12
ENDBRANCH   1  11
TORSDOF 7
ENDMDL
MODEL      530
REMARK  Name = ZINC000389265675
REMARK                            x       y       z     vdW  Elec       q    Type
REMARK                         _______ _______ _______ _____ _____    ______ ____
ROOT
ATOM      1  N   LIG    1       -4.068  -3.498  -2.591  0.00  0.00    -0.510 N 
ATOM      2  H   LIG    1       -3.230  -3.975  -2.295  0.00  0.00    +0.430 HD
ATOM      3  H   LIG    1       -3.878  -2.976  -3.433  0.00  0.00    +0.430 HD
ENDROOT
BRANCH   1   4
ATOM      4  C   LIG    1       -5.126  -4.483  -2.853  0.00  0.00    +0.170 C 
ATOM      5  C   LIG    1       -6.356  -3.772  -3.421  0.00  0.00    +0.090 C 
BRANCH   4   6
ATOM      6  C   LIG    1       -4.622  -5.515  -3.864  0.00  0.00    +0.060 C 
BRANCH   6   7
ATOM      7  C   LIG    1       -3.471  -6.312  -3.248  0.00  0.00    +0.050 C 
BRANCH   7   8
ATOM      8  C   LIG    1       -2.975  -7.329  -4.243  0.00  0.00    -0.090 C 
ATOM      9  C   LIG    1       -2.899  -8.593  -3.906  0.00  0.00    -0.100 C 
ATOM     10  C   LIG    1       -2.538  -9.628  -4.941  0.00  0.00    +0.070 C 
ATOM     11  C   LIG    1       -3.173  -9.011  -2.485  0.00  0.00    +0.080 C 
ENDBRANCH   7   8
ENDBRANCH   6   7
ENDBRANCH   4   6
ENDBRANCH   1   4
BRANCH   1  12
ATOM     12  C   LIG    1       -4.507  -2.578  -1.534  0.00  0.00    +0.250 C 
BRANCH  12  13
ATOM     13  C   LIG    1       -3.406  -1.552  -1.260  0.00  0.00    +0.030 C 
BRANCH  13  14
ATOM     14  C   LIG    1       -3.863  -0.593  -0.159  0.00  0.00    +0.070 C 
BRANCH  14  16
ATOM     15  C   LIG    1       -3.044   1.698   0.041  0.00  0.00    +0.030 C 
ATOM     16  C   LIG    1       -2.778   0.417   0.110  0.00  0.00    -0.070 C 
ENDBRANCH  14  16
ENDBRANCH  13  14
ENDBRANCH  12  13
ENDBRANCH   1  12
TORSDOF 8
ENDMDL
MODEL      531
REMARK  Name = ZINC000389236923
REMARK                            x       y       z     vdW  Elec       q    Type
REMARK                         _______ _______ _______ _____ _____    ______ ____
ROOT
ATOM      1  N   LIG    1       -1.917  -4.339  -2.949  0.00  0.00    -0.510 N 
ATOM      2  H   LIG    1       -1.351  -5.174  -2.923  0.00  0.00    +0.430 HD
ATOM      3  H   LIG    1       -1.811  -3.890  -3.846  0.00  0.00    +0.420 HD
ENDROOT
BRANCH   1   4
ATOM      4  C   LIG    1       -1.484  -3.421  -1.888  0.00  0.00    +0.170 C 
ATOM      5  C   LIG    1       -2.256  -2.105  -2.006  0.00  0.00    +0.080 C 
BRANCH   4   6
ATOM      6  C   LIG    1        0.015  -3.147  -2.030  0.00  0.00    -0.010 C 
ATOM      7  C   LIG    1        0.787  -4.463  -1.912  0.00  0.00    +0.040 C 
BRANCH   6   8
ATOM      8  C   LIG    1        0.466  -2.191  -0.924  0.00  0.00    +0.070 C 
BRANCH   8  10
ATOM      9  C   LIG    1        2.264  -0.565  -1.218  0.00  0.00    +0.030 C 
ATOM     10  C   LIG    1        1.912  -1.824  -1.136  0.00  0.00    -0.070 C 
ENDBRANCH   8  10
ENDBRANCH   6   8
ENDBRANCH   4   6
ENDBRANCH   1   4
BRANCH   1  11
ATOM     11  C   LIG    1       -3.327  -4.696  -2.743  0.00  0.00    +0.250 C 
BRANCH  11  12
ATOM     12  C   LIG    1       -3.778  -5.653  -3.848  0.00  0.00    +0.070 C 
BRANCH  12  13
ATOM     13  C   LIG    1       -5.224  -6.019  -3.636  0.00  0.00    -0.080 C 
ATOM     14  C   LIG    1       -6.107  -5.766  -4.570  0.00  0.00    -0.080 C 
ATOM     15  C   LIG    1       -7.526  -6.250  -4.416  0.00  0.00    +0.090 C 
ATOM     16  C   LIG    1       -5.704  -4.992  -5.799  0.00  0.00    +0.080 C 
ENDBRANCH  12  13
ENDBRANCH  11  12
ENDBRANCH   1  11
TORSDOF 7
ENDMDL
MODEL      532
REMARK  Name = ZINC000389265674
REMARK                            x       y       z     vdW  Elec       q    Type
REMARK                         _______ _______ _______ _____ _____    ______ ____
ROOT
ATOM      1  N   LIG    1       -1.958  -2.508  -3.263  0.00  0.00    -0.510 N 
ATOM      2  H   LIG    1       -1.206  -3.166  -3.122  0.00  0.00    +0.430 HD
ATOM      3  H   LIG    1       -1.995  -2.244  -4.236  0.00  0.00    +0.430 HD
ENDROOT
BRANCH   1   4
ATOM      4  C   LIG    1       -3.231  -3.129  -2.876  0.00  0.00    +0.170 C 
ATOM      5  C   LIG    1       -3.131  -3.642  -1.438  0.00  0.00    +0.090 C 
BRANCH   4   6
ATOM      6  C   LIG    1       -3.535  -4.298  -3.814  0.00  0.00    +0.060 C 
BRANCH   6   7
ATOM      7  C   LIG    1       -3.758  -3.769  -5.233  0.00  0.00    +0.050 C 
BRANCH   7   8
ATOM      8  C   LIG    1       -4.057  -4.921  -6.157  0.00  0.00    -0.090 C 
ATOM      9  C   LIG    1       -5.181  -4.946  -6.829  0.00  0.00    -0.100 C 
ATOM     10  C   LIG    1       -5.424  -6.027  -7.851  0.00  0.00    +0.070 C 
ATOM     11  C   LIG    1       -6.232  -3.896  -6.579  0.00  0.00    +0.080 C 
ENDBRANCH   7   8
ENDBRANCH   6   7
ENDBRANCH   4   6
ENDBRANCH   1   4
BRANCH   1  12
ATOM     12  C   LIG    1       -1.724  -1.314  -2.440  0.00  0.00    +0.250 C 
BRANCH  12  13
ATOM     13  C   LIG    1       -0.398  -0.667  -2.843  0.00  0.00    +0.030 C 
BRANCH  13  14
ATOM     14  C   LIG    1       -0.155   0.576  -1.986  0.00  0.00    +0.070 C 
BRANCH  14  16
ATOM     15  C   LIG    1        1.184   2.474  -2.737  0.00  0.00    +0.030 C 
ATOM     16  C   LIG    1        1.151   1.213  -2.383  0.00  0.00    -0.070 C 
ENDBRANCH  14  16
ENDBRANCH  13  14
ENDBRANCH  12  13
ENDBRANCH   1  12
TORSDOF 8
ENDMDL
MODEL      533
REMARK  Name = ZINC000389236924
REMARK                            x       y       z     vdW  Elec       q    Type
REMARK                         _______ _______ _______ _____ _____    ______ ____
ROOT
ATOM      1  N   LIG    1       -1.998  -4.442  -2.863  0.00  0.00    -0.510 N 
ATOM      2  H   LIG    1       -1.557  -5.346  -2.779  0.00  0.00    +0.420 HD
ATOM      3  H   LIG    1       -1.736  -4.021  -3.742  0.00  0.00    +0.430 HD
ENDROOT
BRANCH   1   4
ATOM      4  C   LIG    1       -1.564  -3.580  -1.757  0.00  0.00    +0.170 C 
ATOM      5  C   LIG    1       -1.850  -4.276  -0.425  0.00  0.00    +0.090 C 
BRANCH   4   6
ATOM      6  C   LIG    1       -0.063  -3.309  -1.879  0.00  0.00    -0.010 C 
ATOM      7  C   LIG    1        0.700  -4.634  -1.823  0.00  0.00    +0.050 C 
BRANCH   6   8
ATOM      8  C   LIG    1        0.389  -2.411  -0.727  0.00  0.00    +0.080 C 
BRANCH   8  10
ATOM      9  C   LIG    1        2.199  -0.785  -0.934  0.00  0.00    +0.030 C 
ATOM     10  C   LIG    1        1.839  -2.044  -0.914  0.00  0.00    -0.070 C 
ENDBRANCH   8  10
ENDBRANCH   6   8
ENDBRANCH   4   6
ENDBRANCH   1   4
BRANCH   1  11
ATOM     11  C   LIG    1       -3.458  -4.604  -2.815  0.00  0.00    +0.250 C 
BRANCH  11  12
ATOM     12  C   LIG    1       -3.910  -5.503  -3.967  0.00  0.00    +0.070 C 
BRANCH  12  13
ATOM     13  C   LIG    1       -5.407  -5.669  -3.917  0.00  0.00    -0.080 C 
ATOM     14  C   LIG    1       -6.141  -5.309  -4.941  0.00  0.00    -0.080 C 
ATOM     15  C   LIG    1       -7.620  -5.596  -4.946  0.00  0.00    +0.090 C 
ATOM     16  C   LIG    1       -5.505  -4.609  -6.114  0.00  0.00    +0.080 C 
ENDBRANCH  12  13
ENDBRANCH  11  12
ENDBRANCH   1  11
TORSDOF 7
ENDMDL
MODEL      534
REMARK  Name = ZINC000389236926
REMARK                            x       y       z     vdW  Elec       q    Type
REMARK                         _______ _______ _______ _____ _____    ______ ____
ROOT
ATOM      1  N   LIG    1       -1.659  -4.523  -2.724  0.00  0.00    -0.510 N 
ATOM      2  H   LIG    1       -0.984  -5.271  -2.681  0.00  0.00    +0.430 HD
ATOM      3  H   LIG    1       -1.671  -4.133  -3.655  0.00  0.00    +0.420 HD
ENDROOT
BRANCH   1   4
ATOM      4  C   LIG    1       -1.294  -3.477  -1.760  0.00  0.00    +0.170 C 
ATOM      5  C   LIG    1       -2.245  -2.288  -1.911  0.00  0.00    +0.090 C 
BRANCH   4   6
ATOM      6  C   LIG    1        0.142  -3.018  -2.025  0.00  0.00    -0.010 C 
ATOM      7  C   LIG    1        0.218  -2.348  -3.398  0.00  0.00    +0.040 C 
BRANCH   6   8
ATOM      8  C   LIG    1        0.566  -2.021  -0.945  0.00  0.00    +0.080 C 
BRANCH   8  10
ATOM      9  C   LIG    1        2.372  -0.407  -1.255  0.00  0.00    +0.030 C 
ATOM     10  C   LIG    1        2.018  -1.663  -1.134  0.00  0.00    -0.060 C 
ENDBRANCH   8  10
ENDBRANCH   6   8
ENDBRANCH   4   6
ENDBRANCH   1   4
BRANCH   1  11
ATOM     11  C   LIG    1       -2.992  -5.047  -2.396  0.00  0.00    +0.250 C 
BRANCH  11  12
ATOM     12  C   LIG    1       -3.373  -6.137  -3.400  0.00  0.00    +0.070 C 
BRANCH  12  13
ATOM     13  C   LIG    1       -4.740  -6.675  -3.064  0.00  0.00    -0.080 C 
ATOM     14  C   LIG    1       -5.704  -6.613  -3.948  0.00  0.00    -0.080 C 
ATOM     15  C   LIG    1       -7.031  -7.268  -3.663  0.00  0.00    +0.090 C 
ATOM     16  C   LIG    1       -5.486  -5.888  -5.251  0.00  0.00    +0.080 C 
ENDBRANCH  12  13
ENDBRANCH  11  12
ENDBRANCH   1  11
TORSDOF 7
ENDMDL
MODEL      535
REMARK  Name = ZINC000389284171
REMARK                            x       y       z     vdW  Elec       q    Type
REMARK                         _______ _______ _______ _____ _____    ______ ____
ROOT
ATOM      1  N   LIG    1       -1.605  -0.943  -2.356  0.00  0.00    -0.510 N 
ATOM      2  H   LIG    1       -0.865  -0.324  -2.651  0.00  0.00    +0.430 HD
ATOM      3  H   LIG    1       -2.372  -0.400  -1.990  0.00  0.00    +0.420 HD
ENDROOT
BRANCH   1   4
ATOM      4  C   LIG    1       -1.102  -1.845  -1.311  0.00  0.00    +0.170 C 
BRANCH   4   5
ATOM      5  C   LIG    1       -2.258  -2.684  -0.761  0.00  0.00    +0.030 C 
ATOM      6  C   LIG    1       -1.717  -3.696   0.251  0.00  0.00    +0.060 C 
ENDBRANCH   4   5
BRANCH   4   7
ATOM      7  C   LIG    1       -0.487  -1.021  -0.178  0.00  0.00    +0.090 C 
BRANCH   7   9
ATOM      8  C   LIG    1        0.811   1.012  -0.561  0.00  0.00    +0.060 C 
ATOM      9  C   LIG    1        0.727  -0.289  -0.692  0.00  0.00    -0.090 C 
ENDBRANCH   7   9
ENDBRANCH   4   7
ENDBRANCH   1   4
BRANCH   1  10
ATOM     10  C   LIG    1       -2.068  -1.734  -3.504  0.00  0.00    +0.250 C 
BRANCH  10  11
ATOM     11  C   LIG    1       -2.467  -0.794  -4.643  0.00  0.00    -0.020 C 
ATOM     12  C   LIG    1       -3.674   0.043  -4.215  0.00  0.00    +0.040 C 
BRANCH  11  13
ATOM     13  C   LIG    1       -2.831  -1.617  -5.880  0.00  0.00    +0.040 C 
BRANCH  13  14
ATOM     14  C   LIG    1       -3.111  -0.677  -7.054  0.00  0.00    -0.020 C 
ATOM     15  C   LIG    1       -3.625  -1.488  -8.245  0.00  0.00    +0.030 C 
ATOM     16  C   LIG    1       -1.821   0.045  -7.448  0.00  0.00    +0.020 C 
ENDBRANCH  13  14
ENDBRANCH  11  13
ENDBRANCH  10  11
ENDBRANCH   1  10
TORSDOF 8
ENDMDL
MODEL      536
REMARK  Name = ZINC000389291864
REMARK                            x       y       z     vdW  Elec       q    Type
REMARK                         _______ _______ _______ _____ _____    ______ ____
ROOT
ATOM      1  C   LIG    1       -2.659  -3.332  -2.372  0.00  0.00    +0.180 C 
ENDROOT
BRANCH   1   2
ATOM      2  C   LIG    1       -2.601  -2.444  -3.617  0.00  0.00    -0.030 C 
ATOM      3  C   LIG    1       -1.171  -2.147  -4.096  0.00  0.00    +0.020 C 
ATOM      4  C   LIG    1       -1.700  -2.321  -5.530  0.00  0.00    +0.030 C 
ATOM      5  C   LIG    1       -2.798  -3.216  -4.933  0.00  0.00    +0.040 C 
ENDBRANCH   1   2
BRANCH   1   6
ATOM      6  N   LIG    1       -2.592  -2.492  -1.168  0.00  0.00    -0.510 N 
ATOM      7  H   LIG    1       -3.316  -1.791  -1.207  0.00  0.00    +0.430 HD
ATOM      8  H   LIG    1       -2.723  -3.066  -0.349  0.00  0.00    +0.420 HD
BRANCH   6   9
ATOM      9  C   LIG    1       -1.279  -1.836  -1.101  0.00  0.00    +0.260 C 
BRANCH   9  10
ATOM     10  C   LIG    1       -1.158  -1.071   0.218  0.00  0.00    +0.060 C 
BRANCH  10  12
ATOM     11  C   LIG    1        0.266   0.892   0.497  0.00  0.00    +0.060 C 
ATOM     12  C   LIG    1        0.189  -0.398   0.287  0.00  0.00    -0.060 C 
ENDBRANCH  10  12
ENDBRANCH   9  10
ENDBRANCH   6   9
ENDBRANCH   1   6
BRANCH   1  13
ATOM     13  C   LIG    1       -3.968  -4.123  -2.369  0.00  0.00    +0.050 C 
BRANCH  13  14
ATOM     14  C   LIG    1       -3.971  -5.101  -1.192  0.00  0.00    +0.010 C 
BRANCH  14  15
ATOM     15  C   LIG    1       -5.280  -5.892  -1.190  0.00  0.00    +0.010 C 
ATOM     16  C   LIG    1       -5.283  -6.870  -0.013  0.00  0.00    +0.010 C 
ENDBRANCH  14  15
ENDBRANCH  13  14
ENDBRANCH   1  13
TORSDOF 8
ENDMDL
MODEL      537
REMARK  Name = ZINC000389284172
REMARK                            x       y       z     vdW  Elec       q    Type
REMARK                         _______ _______ _______ _____ _____    ______ ____
ROOT
ATOM      1  N   LIG    1       -0.137  -2.820  -1.604  0.00  0.00    -0.510 N 
ATOM      2  H   LIG    1       -0.438  -3.495  -0.917  0.00  0.00    +0.430 HD
ATOM      3  H   LIG    1        0.784  -2.485  -1.365  0.00  0.00    +0.420 HD
ENDROOT
BRANCH   1   4
ATOM      4  C   LIG    1       -1.078  -1.693  -1.628  0.00  0.00    +0.170 C 
BRANCH   4   5
ATOM      5  C   LIG    1       -2.498  -2.218  -1.847  0.00  0.00    +0.030 C 
ATOM      6  C   LIG    1       -3.458  -1.038  -2.017  0.00  0.00    +0.060 C 
ENDBRANCH   4   5
BRANCH   4   7
ATOM      7  C   LIG    1       -1.011  -0.944  -0.296  0.00  0.00    +0.110 C 
BRANCH   7   9
ATOM      8  C   LIG    1        0.464   0.964   0.090  0.00  0.00    +0.090 C 
ATOM      9  C   LIG    1        0.353  -0.322  -0.137  0.00  0.00    -0.110 C 
ENDBRANCH   7   9
ENDBRANCH   4   7
ENDBRANCH   1   4
BRANCH   1  10
ATOM     10  C   LIG    1       -0.098  -3.455  -2.928  0.00  0.00    +0.250 C 
BRANCH  10  11
ATOM     11  C   LIG    1        0.974  -4.545  -2.940  0.00  0.00    -0.020 C 
ATOM     12  C   LIG    1        2.353  -3.907  -2.757  0.00  0.00    +0.040 C 
BRANCH  11  13
ATOM     13  C   LIG    1        0.930  -5.289  -4.277  0.00  0.00    +0.040 C 
BRANCH  13  14
ATOM     14  C   LIG    1        1.901  -6.471  -4.235  0.00  0.00    -0.020 C 
ATOM     15  C   LIG    1        1.968  -7.125  -5.616  0.00  0.00    +0.030 C 
ATOM     16  C   LIG    1        1.415  -7.495  -3.208  0.00  0.00    +0.020 C 
ENDBRANCH  13  14
ENDBRANCH  11  13
ENDBRANCH  10  11
ENDBRANCH   1  10
TORSDOF 8
ENDMDL
MODEL      538
REMARK  Name = ZINC000389291863
REMARK                            x       y       z     vdW  Elec       q    Type
REMARK                         _______ _______ _______ _____ _____    ______ ____
ROOT
ATOM      1  C   LIG    1       -2.486  -3.432  -2.293  0.00  0.00    +0.180 C 
ENDROOT
BRANCH   1   2
ATOM      2  C   LIG    1       -1.405  -4.473  -1.999  0.00  0.00    -0.020 C 
ATOM      3  C   LIG    1       -0.752  -5.058  -3.263  0.00  0.00    +0.040 C 
ATOM      4  C   LIG    1        0.586  -4.992  -2.507  0.00  0.00    +0.030 C 
ATOM      5  C   LIG    1       -0.033  -3.861  -1.669  0.00  0.00    +0.010 C 
ENDBRANCH   1   2
BRANCH   1   6
ATOM      6  N   LIG    1       -2.694  -2.592  -1.106  0.00  0.00    -0.510 N 
ATOM      7  H   LIG    1       -1.834  -2.117  -0.876  0.00  0.00    +0.430 HD
ATOM      8  H   LIG    1       -3.414  -1.912  -1.297  0.00  0.00    +0.430 HD
BRANCH   6   9
ATOM      9  C   LIG    1       -3.105  -3.435   0.024  0.00  0.00    +0.250 C 
BRANCH   9  10
ATOM     10  C   LIG    1       -3.196  -2.582   1.291  0.00  0.00    +0.070 C 
BRANCH  10  12
ATOM     11  C   LIG    1       -2.887  -3.489   3.536  0.00  0.00    +0.060 C 
ATOM     12  C   LIG    1       -3.618  -3.446   2.450  0.00  0.00    -0.060 C 
ENDBRANCH  10  12
ENDBRANCH   9  10
ENDBRANCH   6   9
ENDBRANCH   1   6
BRANCH   1  13
ATOM     13  C   LIG    1       -3.794  -4.142  -2.651  0.00  0.00    +0.050 C 
BRANCH  13  14
ATOM     14  C   LIG    1       -4.840  -3.106  -3.066  0.00  0.00    +0.010 C 
BRANCH  14  15
ATOM     15  C   LIG    1       -6.148  -3.816  -3.423  0.00  0.00    +0.010 C 
ATOM     16  C   LIG    1       -7.194  -2.779  -3.838  0.00  0.00    +0.010 C 
ENDBRANCH  14  15
ENDBRANCH  13  14
ENDBRANCH   1  13
TORSDOF 8
ENDMDL
MODEL      539
REMARK  Name = ZINC000389284174
REMARK                            x       y       z     vdW  Elec       q    Type
REMARK                         _______ _______ _______ _____ _____    ______ ____
ROOT
ATOM      1  N   LIG    1       -0.166  -2.746  -1.187  0.00  0.00    -0.510 N 
ATOM      2  H   LIG    1       -0.361  -3.459  -0.500  0.00  0.00    +0.420 HD
ATOM      3  H   LIG    1        0.695  -2.277  -0.950  0.00  0.00    +0.430 HD
ENDROOT
BRANCH   1   4
ATOM      4  C   LIG    1       -1.265  -1.772  -1.209  0.00  0.00    +0.170 C 
BRANCH   4   5
ATOM      5  C   LIG    1       -2.591  -2.504  -1.424  0.00  0.00    +0.030 C 
ATOM      6  C   LIG    1       -3.716  -1.481  -1.596  0.00  0.00    +0.060 C 
ENDBRANCH   4   5
BRANCH   4   7
ATOM      7  C   LIG    1       -1.306  -1.021   0.123  0.00  0.00    +0.100 C 
BRANCH   7   9
ATOM      8  C   LIG    1       -0.132   1.086   0.505  0.00  0.00    +0.090 C 
ATOM      9  C   LIG    1       -0.051  -0.202   0.278  0.00  0.00    -0.110 C 
ENDBRANCH   7   9
ENDBRANCH   4   7
ENDBRANCH   1   4
BRANCH   1  10
ATOM     10  C   LIG    1       -0.035  -3.367  -2.513  0.00  0.00    +0.250 C 
BRANCH  10  11
ATOM     11  C   LIG    1        1.194  -4.278  -2.530  0.00  0.00    -0.020 C 
ATOM     12  C   LIG    1        0.980  -5.441  -1.558  0.00  0.00    +0.040 C 
BRANCH  11  13
ATOM     13  C   LIG    1        1.402  -4.827  -3.943  0.00  0.00    +0.040 C 
BRANCH  13  14
ATOM     14  C   LIG    1        2.699  -5.637  -3.990  0.00  0.00    -0.020 C 
ATOM     15  C   LIG    1        3.889  -4.709  -3.737  0.00  0.00    +0.020 C 
ATOM     16  C   LIG    1        2.844  -6.288  -5.367  0.00  0.00    +0.030 C 
ENDBRANCH  13  14
ENDBRANCH  11  13
ENDBRANCH  10  11
ENDBRANCH   1  10
TORSDOF 8
ENDMDL
MODEL      540
REMARK  Name = ZINC000389284173
REMARK                            x       y       z     vdW  Elec       q    Type
REMARK                         _______ _______ _______ _____ _____    ______ ____
ROOT
ATOM      1  N   LIG    1       -1.433  -0.873  -2.334  0.00  0.00    -0.510 N 
ATOM      2  H   LIG    1       -0.603  -0.301  -2.379  0.00  0.00    +0.430 HD
ATOM      3  H   LIG    1       -2.244  -0.281  -2.228  0.00  0.00    +0.420 HD
ENDROOT
BRANCH   1   4
ATOM      4  C   LIG    1       -1.339  -1.785  -1.186  0.00  0.00    +0.170 C 
BRANCH   4   5
ATOM      5  C   LIG    1       -2.660  -2.539  -1.025  0.00  0.00    +0.030 C 
ATOM      6  C   LIG    1       -2.537  -3.542   0.124  0.00  0.00    +0.060 C 
ENDBRANCH   4   5
BRANCH   4   7
ATOM      7  C   LIG    1       -1.053  -0.979   0.083  0.00  0.00    +0.090 C 
BRANCH   7   9
ATOM      8  C   LIG    1        0.428   0.961   0.126  0.00  0.00    +0.060 C 
ATOM      9  C   LIG    1        0.304  -0.334  -0.027  0.00  0.00    -0.090 C 
ENDBRANCH   7   9
ENDBRANCH   4   7
ENDBRANCH   1   4
BRANCH   1  10
ATOM     10  C   LIG    1       -1.557  -1.655  -3.572  0.00  0.00    +0.250 C 
BRANCH  10  11
ATOM     11  C   LIG    1       -1.753  -0.707  -4.757  0.00  0.00    -0.020 C 
ATOM     12  C   LIG    1       -0.496   0.147  -4.940  0.00  0.00    +0.040 C 
BRANCH  11  13
ATOM     13  C   LIG    1       -2.005  -1.522  -6.026  0.00  0.00    +0.040 C 
BRANCH  13  14
ATOM     14  C   LIG    1       -2.325  -0.576  -7.185  0.00  0.00    -0.020 C 
ATOM     15  C   LIG    1       -3.641   0.151  -6.902  0.00  0.00    +0.020 C 
ATOM     16  C   LIG    1       -2.454  -1.381  -8.480  0.00  0.00    +0.030 C 
ENDBRANCH  13  14
ENDBRANCH  11  13
ENDBRANCH  10  11
ENDBRANCH   1  10
TORSDOF 8
ENDMDL
MODEL      541
REMARK  Name = ZINC000389373179
REMARK                            x       y       z     vdW  Elec       q    Type
REMARK                         _______ _______ _______ _____ _____    ______ ____
ROOT
ATOM      1  C   LIG    1        3.314  -1.808   1.291  0.00  0.00    +0.260 C 
ENDROOT
BRANCH   1   2
ATOM      2  C   LIG    1        3.378  -2.175   2.775  0.00  0.00    -0.080 C 
ATOM      3  C   LIG    1        2.129  -2.917   3.167  0.00  0.00    +0.010 C 
ATOM      4  C   LIG    1        1.692  -2.613   4.612  0.00  0.00    +0.010 C 
ATOM      5  C   LIG    1        2.876  -2.565   5.597  0.00  0.00    -0.000 C 
ATOM      6  C   LIG    1        3.876  -3.661   5.348  0.00  0.00    +0.020 C 
ATOM      7  C   LIG    1        4.988  -3.111   4.431  0.00  0.00    +0.010 C 
ATOM      8  C   LIG    1        3.510  -0.902   3.614  0.00  0.00    +0.040 C 
ATOM      9  C   LIG    1        4.592  -3.091   3.030  0.00  0.00    +0.040 C 
ENDBRANCH   1   2
BRANCH   1  10
ATOM     10  N   LIG    1        2.157  -0.936   1.052  0.00  0.00    -0.510 N 
ATOM     11  H   LIG    1        1.311  -1.419   1.315  0.00  0.00    +0.420 HD
ATOM     12  H   LIG    1        2.250  -0.095   1.602  0.00  0.00    +0.430 HD
BRANCH  10  13
ATOM     13  C   LIG    1        2.096  -0.584  -0.373  0.00  0.00    +0.310 C 
BRANCH  13  15
ATOM     14  C   LIG    1        1.060   1.613  -0.625  0.00  0.00    +0.120 C 
ATOM     15  C   LIG    1        0.908   0.311  -0.619  0.00  0.00    -0.200 C 
ATOM     16  C   LIG    1       -0.452  -0.290  -0.857  0.00  0.00    +0.090 C 
ENDBRANCH  13  15
ENDBRANCH  10  13
ENDBRANCH   1  10
TORSDOF 4
ENDMDL
MODEL      542
REMARK  Name = ZINC000389340503
REMARK                            x       y       z     vdW  Elec       q    Type
REMARK                         _______ _______ _______ _____ _____    ______ ____
ROOT
ATOM      1  N   LIG    1        4.039  -4.159   2.305  0.00  0.00    -0.510 N 
ATOM      2  H   LIG    1        4.796  -3.496   2.384  0.00  0.00    +0.430 HD
ATOM      3  H   LIG    1        4.128  -4.669   1.439  0.00  0.00    +0.430 HD
ENDROOT
BRANCH   1   4
ATOM      4  C   LIG    1        2.757  -3.441   2.321  0.00  0.00    +0.250 C 
BRANCH   4   5
ATOM      5  C   LIG    1        2.705  -2.464   1.145  0.00  0.00    +0.030 C 
BRANCH   5   6
ATOM      6  C   LIG    1        1.370  -1.717   1.161  0.00  0.00    +0.050 C 
BRANCH   6   7
ATOM      7  C   LIG    1        1.317  -0.740  -0.015  0.00  0.00    +0.060 C 
BRANCH   7   9
ATOM      8  C   LIG    1       -0.016   1.306   0.009  0.00  0.00    +0.020 C 
ATOM      9  C   LIG    1        0.002  -0.004   0.002  0.00  0.00    -0.060 C 
ENDBRANCH   7   9
ENDBRANCH   6   7
ENDBRANCH   5   6
ENDBRANCH   4   5
ENDBRANCH   1   4
BRANCH   1  10
ATOM     10  C   LIG    1        4.090  -5.097   3.434  0.00  0.00    +0.250 C 
BRANCH  10  11
ATOM     11  C   LIG    1        5.425  -5.844   3.417  0.00  0.00    -0.020 C 
ATOM     12  C   LIG    1        6.566  -4.854   3.662  0.00  0.00    +0.010 C 
ATOM     13  C   LIG    1        7.901  -5.601   3.645  0.00  0.00    +0.020 C 
ATOM     14  C   LIG    1        7.904  -6.665   4.744  0.00  0.00    +0.010 C 
ATOM     15  C   LIG    1        6.763  -7.655   4.499  0.00  0.00    +0.020 C 
ATOM     16  C   LIG    1        5.428  -6.908   4.516  0.00  0.00    +0.030 C 
ENDBRANCH  10  11
ENDBRANCH   1  10
TORSDOF 7
ENDMDL
MODEL      543
REMARK  Name = ZINC001176798506
REMARK                            x       y       z     vdW  Elec       q    Type
REMARK                         _______ _______ _______ _____ _____    ______ ____
ROOT
ATOM      1  N   LIG    1        2.877  -3.462   2.416  0.00  0.00    -0.380 N 
ATOM      2  H   LIG    1        2.845  -3.070   3.345  0.00  0.00    +0.420 HD
ENDROOT
BRANCH   1   3
ATOM      3  C   LIG    1        4.191  -4.078   2.189  0.00  0.00    +0.160 C 
ATOM      4  C   LIG    1        5.290  -3.048   2.456  0.00  0.00    +0.080 C 
BRANCH   3   5
ATOM      5  C   LIG    1        4.367  -5.269   3.134  0.00  0.00    -0.010 C 
ATOM      6  C   LIG    1        4.296  -4.784   4.583  0.00  0.00    +0.050 C 
BRANCH   5   7
ATOM      7  C   LIG    1        5.726  -5.924   2.881  0.00  0.00    +0.030 C 
ATOM      8  C   LIG    1        5.850  -7.186   3.737  0.00  0.00    +0.030 C 
ENDBRANCH   5   7
ENDBRANCH   3   5
ENDBRANCH   1   3
BRANCH   1   9
ATOM      9  C   LIG    1        1.828  -4.482   2.278  0.00  0.00    +0.240 C 
ATOM     10  C   LIG    1        1.950  -5.158   0.911  0.00  0.00    +0.070 C 
ENDBRANCH   1   9
BRANCH   1  11
ATOM     11  C   LIG    1        2.658  -2.398   1.427  0.00  0.00    +0.240 C 
BRANCH  11  12
ATOM     12  C   LIG    1        1.346  -1.675   1.740  0.00  0.00    +0.040 C 
BRANCH  12  13
ATOM     13  C   LIG    1        1.118  -0.566   0.710  0.00  0.00    +0.070 C 
BRANCH  13  15
ATOM     14  C   LIG    1       -0.182   1.446   1.183  0.00  0.00    +0.030 C 
ATOM     15  C   LIG    1       -0.174   0.147   1.018  0.00  0.00    -0.070 C 
ENDBRANCH  13  15
ENDBRANCH  12  13
ENDBRANCH  11  12
ENDBRANCH   1  11
TORSDOF 8
ENDMDL
MODEL      544
REMARK  Name = ZINC000221468487
REMARK                            x       y       z     vdW  Elec       q    Type
REMARK                         _______ _______ _______ _____ _____    ______ ____
ROOT
ATOM      1  N   LIG    1       -2.949  -3.648  -2.645  0.00  0.00    -0.390 N 
ATOM      2  H   LIG    1       -2.170  -4.266  -2.474  0.00  0.00    +0.420 HD
ENDROOT
BRANCH   1   3
ATOM      3  C   LIG    1       -3.476  -3.158  -1.364  0.00  0.00    +0.240 C 
BRANCH   3   4
ATOM      4  C   LIG    1       -2.342  -2.522  -0.556  0.00  0.00    +0.040 C 
BRANCH   4   5
ATOM      5  C   LIG    1       -2.903  -1.958   0.751  0.00  0.00    +0.070 C 
BRANCH   5   7
ATOM      6  C   LIG    1       -1.882  -0.087   1.942  0.00  0.00    +0.030 C 
ATOM      7  C   LIG    1       -1.786  -1.332   1.547  0.00  0.00    -0.070 C 
ENDBRANCH   5   7
ENDBRANCH   4   5
ENDBRANCH   3   4
ENDBRANCH   1   3
BRANCH   1   8
ATOM      8  C   LIG    1       -2.500  -2.509  -3.458  0.00  0.00    +0.250 C 
BRANCH   8   9
ATOM      9  C   LIG    1       -1.829  -3.026  -4.732  0.00  0.00    -0.030 C 
ATOM     10  C   LIG    1       -0.563  -3.801  -4.363  0.00  0.00    +0.040 C 
ATOM     11  C   LIG    1       -1.460  -1.843  -5.629  0.00  0.00    +0.070 C 
ENDBRANCH   8   9
ENDBRANCH   1   8
BRANCH   1  12
ATOM     12  C   LIG    1       -4.004  -4.376  -3.362  0.00  0.00    +0.250 C 
BRANCH  12  13
ATOM     13  C   LIG    1       -4.359  -5.649  -2.590  0.00  0.00    -0.030 C 
ATOM     14  C   LIG    1       -3.149  -6.584  -2.562  0.00  0.00    +0.040 C 
ATOM     15  C   LIG    1       -5.531  -6.352  -3.279  0.00  0.00    +0.070 C 
ENDBRANCH  12  13
ENDBRANCH   1  12
TORSDOF 8
ENDMDL
MODEL      545
REMARK  Name = ZINC001176798507
REMARK                            x       y       z     vdW  Elec       q    Type
REMARK                         _______ _______ _______ _____ _____    ______ ____
ROOT
ATOM      1  N   LIG    1        2.533  -3.727   2.389  0.00  0.00    -0.380 N 
ATOM      2  H   LIG    1        2.280  -3.228   3.228  0.00  0.00    +0.420 HD
ENDROOT
BRANCH   1   3
ATOM      3  C   LIG    1        3.972  -4.021   2.408  0.00  0.00    +0.160 C 
ATOM      4  C   LIG    1        4.755  -2.726   2.633  0.00  0.00    +0.090 C 
BRANCH   3   5
ATOM      5  C   LIG    1        4.384  -4.641   1.071  0.00  0.00    -0.020 C 
ATOM      6  C   LIG    1        4.701  -3.528   0.070  0.00  0.00    +0.050 C 
BRANCH   5   7
ATOM      7  C   LIG    1        5.625  -5.513   1.274  0.00  0.00    +0.030 C 
ATOM      8  C   LIG    1        5.963  -6.230  -0.035  0.00  0.00    +0.030 C 
ENDBRANCH   5   7
ENDBRANCH   3   5
ENDBRANCH   1   3
BRANCH   1   9
ATOM      9  C   LIG    1        1.777  -4.985   2.320  0.00  0.00    +0.240 C 
ATOM     10  C   LIG    1        2.033  -5.803   3.587  0.00  0.00    +0.080 C 
ENDBRANCH   1   9
BRANCH   1  11
ATOM     11  C   LIG    1        2.218  -2.901   1.215  0.00  0.00    +0.240 C 
BRANCH  11  12
ATOM     12  C   LIG    1        0.754  -2.459   1.281  0.00  0.00    +0.040 C 
BRANCH  12  13
ATOM     13  C   LIG    1        0.426  -1.599   0.059  0.00  0.00    +0.070 C 
BRANCH  13  15
ATOM     14  C   LIG    1       -1.318   0.109   0.059  0.00  0.00    +0.030 C 
ATOM     15  C   LIG    1       -1.015  -1.164   0.124  0.00  0.00    -0.070 C 
ENDBRANCH  13  15
ENDBRANCH  12  13
ENDBRANCH  11  12
ENDBRANCH   1  11
TORSDOF 8
ENDMDL
MODEL      546
REMARK  Name = ZINC000168026468
REMARK                            x       y       z     vdW  Elec       q    Type
REMARK                         _______ _______ _______ _____ _____    ______ ____
ROOT
ATOM      1  N   LIG    1        3.567  -2.513   1.823  0.00  0.00    -0.510 N 
ATOM      2  H   LIG    1        4.282  -2.389   1.122  0.00  0.00    +0.420 HD
ATOM      3  H   LIG    1        3.197  -3.450   1.764  0.00  0.00    +0.430 HD
ENDROOT
BRANCH   1   4
ATOM      4  C   LIG    1        4.144  -2.296   3.156  0.00  0.00    +0.060 C 
ATOM      5  C   LIG    1        3.108  -2.650   4.224  0.00  0.00    +0.080 C 
ATOM      6  C   LIG    1        4.549  -0.828   3.304  0.00  0.00    +0.090 C 
BRANCH   4   7
ATOM      7  C   LIG    1        5.378  -3.185   3.328  0.00  0.00    +0.070 C 
BRANCH   7   8
ATOM      8  C   LIG    1        5.063  -4.596   2.825  0.00  0.00    -0.090 C 
ATOM      9  C   LIG    1        3.673  -5.011   3.309  0.00  0.00    +0.040 C 
ATOM     10  C   LIG    1        6.106  -5.574   3.369  0.00  0.00    +0.070 C 
ATOM     11  C   LIG    1        5.097  -4.612   1.296  0.00  0.00    +0.030 C 
ENDBRANCH   7   8
ENDBRANCH   4   7
ENDBRANCH   1   4
BRANCH   1  12
ATOM     12  C   LIG    1        2.486  -1.544   1.595  0.00  0.00    +0.240 C 
BRANCH  12  13
ATOM     13  C   LIG    1        1.884  -1.770   0.206  0.00  0.00    +0.070 C 
BRANCH  13  15
ATOM     14  C   LIG    1        1.022   0.344  -0.660  0.00  0.00    +0.050 C 
ATOM     15  C   LIG    1        0.775  -0.777  -0.028  0.00  0.00    -0.150 C 
ATOM     16  C   LIG    1       -0.618  -1.072   0.465  0.00  0.00    +0.080 C 
ENDBRANCH  13  15
ENDBRANCH  12  13
ENDBRANCH   1  12
TORSDOF 6
ENDMDL
MODEL      547
REMARK  Name = ZINC000126689524
REMARK                            x       y       z     vdW  Elec       q    Type
REMARK                         _______ _______ _______ _____ _____    ______ ____
ROOT
ATOM      1  N   LIG    1       -2.566  -3.142  -0.294  0.00  0.00    -0.510 N 
ATOM      2  H   LIG    1       -1.892  -3.709   0.199  0.00  0.00    +0.420 HD
ATOM      3  H   LIG    1       -2.198  -2.895  -1.201  0.00  0.00    +0.420 HD
ENDROOT
BRANCH   1   4
ATOM      4  C   LIG    1       -2.836  -1.920   0.475  0.00  0.00    +0.160 C 
ATOM      5  C   LIG    1       -3.776  -1.013  -0.322  0.00  0.00    +0.090 C 
BRANCH   4   6
ATOM      6  C   LIG    1       -1.521  -1.184   0.741  0.00  0.00    +0.060 C 
BRANCH   6   7
ATOM      7  C   LIG    1       -0.630  -2.042   1.642  0.00  0.00    +0.040 C 
BRANCH   7   9
ATOM      8  C   LIG    1        1.057  -1.100   3.135  0.00  0.00    +0.050 C 
ATOM      9  C   LIG    1        0.665  -1.317   1.904  0.00  0.00    -0.070 C 
ENDBRANCH   7   9
ENDBRANCH   6   7
ENDBRANCH   4   6
ENDBRANCH   1   4
BRANCH   1  10
ATOM     10  C   LIG    1       -3.813  -3.900  -0.463  0.00  0.00    +0.160 C 
ATOM     11  C   LIG    1       -3.712  -4.776  -1.714  0.00  0.00    +0.090 C 
BRANCH  10  12
ATOM     12  C   LIG    1       -4.041  -4.787   0.763  0.00  0.00    -0.010 C 
ATOM     13  C   LIG    1       -4.471  -3.929   1.979  0.00  0.00    +0.010 C 
ATOM     14  C   LIG    1       -5.218  -4.952   2.871  0.00  0.00    +0.020 C 
ATOM     15  C   LIG    1       -5.982  -5.841   1.869  0.00  0.00    +0.010 C 
ATOM     16  C   LIG    1       -5.234  -5.736   0.529  0.00  0.00    +0.050 C 
ENDBRANCH  10  12
ENDBRANCH   1  10
TORSDOF 6
ENDMDL
MODEL      548
REMARK  Name = ZINC000126689306
REMARK                            x       y       z     vdW  Elec       q    Type
REMARK                         _______ _______ _______ _____ _____    ______ ____
ROOT
ATOM      1  N   LIG    1       -3.754  -1.601  -1.393  0.00  0.00    -0.510 N 
ATOM      2  H   LIG    1       -3.684  -1.206  -2.319  0.00  0.00    +0.420 HD
ATOM      3  H   LIG    1       -3.723  -0.861  -0.708  0.00  0.00    +0.420 HD
ENDROOT
BRANCH   1   4
ATOM      4  C   LIG    1       -2.633  -2.524  -1.168  0.00  0.00    +0.160 C 
ATOM      5  C   LIG    1       -2.607  -3.575  -2.279  0.00  0.00    +0.090 C 
BRANCH   4   6
ATOM      6  C   LIG    1       -1.319  -1.741  -1.176  0.00  0.00    +0.060 C 
BRANCH   6   7
ATOM      7  C   LIG    1       -1.293  -0.775   0.010  0.00  0.00    +0.050 C 
BRANCH   7   9
ATOM      8  C   LIG    1       -0.016   1.306   0.009  0.00  0.00    +0.040 C 
ATOM      9  C   LIG    1        0.002  -0.004   0.002  0.00  0.00    -0.050 C 
ENDBRANCH   7   9
ENDBRANCH   6   7
ENDBRANCH   4   6
ENDBRANCH   1   4
BRANCH   1  10
ATOM     10  C   LIG    1       -5.022  -2.332  -1.266  0.00  0.00    +0.170 C 
ATOM     11  C   LIG    1       -5.186  -2.824   0.173  0.00  0.00    +0.090 C 
BRANCH  10  12
ATOM     12  C   LIG    1       -6.184  -1.402  -1.622  0.00  0.00    -0.020 C 
ATOM     13  C   LIG    1       -6.114  -0.993  -3.115  0.00  0.00    +0.010 C 
ATOM     14  C   LIG    1       -7.581  -0.615  -3.435  0.00  0.00    +0.030 C 
ATOM     15  C   LIG    1       -8.418  -1.646  -2.649  0.00  0.00    +0.010 C 
ATOM     16  C   LIG    1       -7.529  -2.146  -1.497  0.00  0.00    +0.040 C 
ENDBRANCH  10  12
ENDBRANCH   1  10
TORSDOF 6
ENDMDL
MODEL      549
REMARK  Name = ZINC000126689736
REMARK                            x       y       z     vdW  Elec       q    Type
REMARK                         _______ _______ _______ _____ _____    ______ ____
ROOT
ATOM      1  N   LIG    1       -3.779  -1.664  -1.420  0.00  0.00    -0.510 N 
ATOM      2  H   LIG    1       -2.973  -2.225  -1.188  0.00  0.00    +0.430 HD
ATOM      3  H   LIG    1       -3.855  -1.582  -2.423  0.00  0.00    +0.420 HD
ENDROOT
BRANCH   1   4
ATOM      4  C   LIG    1       -3.631  -0.327  -0.830  0.00  0.00    +0.160 C 
ATOM      5  C   LIG    1       -3.375  -0.458   0.673  0.00  0.00    +0.090 C 
BRANCH   4   6
ATOM      6  C   LIG    1       -2.451   0.393  -1.486  0.00  0.00    +0.060 C 
BRANCH   6   7
ATOM      7  C   LIG    1       -2.760   0.635  -2.965  0.00  0.00    +0.050 C 
BRANCH   7   9
ATOM      8  C   LIG    1       -1.030   0.833  -4.676  0.00  0.00    +0.040 C 
ATOM      9  C   LIG    1       -1.598   1.343  -3.612  0.00  0.00    -0.050 C 
ENDBRANCH   7   9
ENDBRANCH   6   7
ENDBRANCH   4   6
ENDBRANCH   1   4
BRANCH   1  10
ATOM     10  C   LIG    1       -4.990  -2.302  -0.888  0.00  0.00    +0.170 C 
ATOM     11  C   LIG    1       -5.062  -3.749  -1.379  0.00  0.00    +0.090 C 
BRANCH  10  12
ATOM     12  C   LIG    1       -6.224  -1.538  -1.371  0.00  0.00    -0.020 C 
ATOM     13  C   LIG    1       -6.354  -1.637  -2.912  0.00  0.00    +0.000 C 
ATOM     14  C   LIG    1       -7.864  -1.382  -3.145  0.00  0.00    +0.030 C 
ATOM     15  C   LIG    1       -8.555  -2.102  -1.968  0.00  0.00    +0.010 C 
ATOM     16  C   LIG    1       -7.512  -2.200  -0.841  0.00  0.00    +0.040 C 
ENDBRANCH  10  12
ENDBRANCH   1  10
TORSDOF 6
ENDMDL
MODEL      550
REMARK  Name = ZINC000126689946
REMARK                            x       y       z     vdW  Elec       q    Type
REMARK                         _______ _______ _______ _____ _____    ______ ____
ROOT
ATOM      1  N   LIG    1       -2.748  -3.329   0.407  0.00  0.00    -0.510 N 
ATOM      2  H   LIG    1       -2.833  -2.872   1.303  0.00  0.00    +0.420 HD
ATOM      3  H   LIG    1       -1.987  -3.991   0.438  0.00  0.00    +0.420 HD
ENDROOT
BRANCH   1   4
ATOM      4  C   LIG    1       -2.483  -2.326  -0.632  0.00  0.00    +0.160 C 
ATOM      5  C   LIG    1       -2.231  -3.029  -1.968  0.00  0.00    +0.090 C 
BRANCH   4   6
ATOM      6  C   LIG    1       -1.250  -1.506  -0.247  0.00  0.00    +0.060 C 
BRANCH   6   7
ATOM      7  C   LIG    1       -1.547  -0.705   1.023  0.00  0.00    +0.040 C 
BRANCH   7   9
ATOM      8  C   LIG    1       -0.432   1.399   1.564  0.00  0.00    +0.050 C 
ATOM      9  C   LIG    1       -0.332   0.103   1.402  0.00  0.00    -0.070 C 
ENDBRANCH   7   9
ENDBRANCH   6   7
ENDBRANCH   4   6
ENDBRANCH   1   4
BRANCH   1  10
ATOM     10  C   LIG    1       -3.998  -4.036   0.098  0.00  0.00    +0.170 C 
ATOM     11  C   LIG    1       -5.170  -3.056   0.174  0.00  0.00    +0.090 C 
BRANCH  10  12
ATOM     12  C   LIG    1       -4.210  -5.164   1.110  0.00  0.00    -0.020 C 
ATOM     13  C   LIG    1       -5.481  -5.976   0.759  0.00  0.00    +0.050 C 
ATOM     14  C   LIG    1       -5.213  -7.342   1.437  0.00  0.00    +0.020 C 
ATOM     15  C   LIG    1       -3.703  -7.579   1.227  0.00  0.00    +0.010 C 
ATOM     16  C   LIG    1       -3.066  -6.194   1.019  0.00  0.00    +0.000 C 
ENDBRANCH  10  12
ENDBRANCH   1  10
TORSDOF 6
ENDMDL
MODEL      551
REMARK  Name = ZINC001179997055
REMARK                            x       y       z     vdW  Elec       q    Type
REMARK                         _______ _______ _______ _____ _____    ______ ____
ROOT
ATOM      1  N   LIG    1        1.173  -2.194   1.197  0.00  0.00    -0.380 N 
ATOM      2  H   LIG    1        0.369  -2.796   1.292  0.00  0.00    +0.420 HD
ENDROOT
BRANCH   1   3
ATOM      3  C   LIG    1        1.032  -1.043   2.099  0.00  0.00    +0.160 C 
ATOM      4  C   LIG    1       -0.317  -0.365   1.853  0.00  0.00    +0.080 C 
ATOM      5  C   LIG    1        2.160  -0.045   1.834  0.00  0.00    +0.080 C 
ENDBRANCH   1   3
BRANCH   1   6
ATOM      6  C   LIG    1        1.269  -1.720  -0.190  0.00  0.00    +0.290 C 
BRANCH   6   8
ATOM      7  C   LIG    1       -0.082   0.093  -1.111  0.00  0.00    +0.110 C 
ATOM      8  C   LIG    1       -0.047  -1.115  -0.606  0.00  0.00    -0.080 C 
ENDBRANCH   6   8
ENDBRANCH   1   6
BRANCH   1   9
ATOM      9  C   LIG    1        2.388  -2.942   1.544  0.00  0.00    +0.250 C 
BRANCH   9  10
ATOM     10  C   LIG    1        2.269  -3.475   2.974  0.00  0.00    +0.030 C 
BRANCH  10  11
ATOM     11  C   LIG    1        3.531  -4.262   3.332  0.00  0.00    +0.030 C 
BRANCH  11  12
ATOM     12  C   LIG    1        3.412  -4.795   4.761  0.00  0.00    +0.020 C 
BRANCH  12  13
ATOM     13  C   LIG    1        4.674  -5.582   5.119  0.00  0.00    -0.030 C 
ATOM     14  C   LIG    1        4.503  -6.219   6.500  0.00  0.00    +0.030 C 
ATOM     15  C   LIG    1        5.876  -4.636   5.139  0.00  0.00    +0.020 C 
ENDBRANCH  12  13
ENDBRANCH  11  12
ENDBRANCH  10  11
ENDBRANCH   9  10
ENDBRANCH   1   9
TORSDOF 8
ENDMDL
MODEL      552
REMARK  Name = ZINC000161651898
REMARK                            x       y       z     vdW  Elec       q    Type
REMARK                         _______ _______ _______ _____ _____    ______ ____
ROOT
ATOM      1  N   LIG    1       -0.416  -2.719  -0.903  0.00  0.00    -0.510 N 
ATOM      2  H   LIG    1       -0.705  -3.201  -0.065  0.00  0.00    +0.420 HD
ATOM      3  H   LIG    1        0.490  -2.300  -0.755  0.00  0.00    +0.420 HD
ENDROOT
BRANCH   1   4
ATOM      4  C   LIG    1       -0.337  -3.675  -2.015  0.00  0.00    +0.170 C 
ATOM      5  C   LIG    1       -1.693  -4.361  -2.196  0.00  0.00    +0.040 C 
ATOM      6  C   LIG    1       -1.611  -5.357  -3.354  0.00  0.00    +0.030 C 
ATOM      7  C   LIG    1       -0.544  -6.410  -3.047  0.00  0.00    +0.020 C 
ATOM      8  C   LIG    1        0.812  -5.724  -2.867  0.00  0.00    +0.050 C 
ATOM      9  C   LIG    1        0.730  -4.728  -1.708  0.00  0.00    -0.080 C 
ATOM     10  C   LIG    1        0.359  -5.471  -0.423  0.00  0.00    +0.040 C 
ATOM     11  C   LIG    1        2.086  -4.042  -1.528  0.00  0.00    +0.040 C 
ENDBRANCH   1   4
BRANCH   1  12
ATOM     12  C   LIG    1       -1.393  -1.671  -1.226  0.00  0.00    +0.160 C 
ATOM     13  C   LIG    1       -1.604  -0.775  -0.004  0.00  0.00    +0.090 C 
BRANCH  12  14
ATOM     14  C   LIG    1       -0.872  -0.829  -2.392  0.00  0.00    +0.090 C 
BRANCH  14  16
ATOM     15  C   LIG    1       -2.138  -0.827  -4.479  0.00  0.00    +0.080 C 
ATOM     16  C   LIG    1       -1.298  -1.455  -3.695  0.00  0.00    -0.090 C 
ENDBRANCH  14  16
ENDBRANCH  12  14
ENDBRANCH   1  12
TORSDOF 4
ENDMDL
MODEL      553
REMARK  Name = ZINC000393683397
REMARK                            x       y       z     vdW  Elec       q    Type
REMARK                         _______ _______ _______ _____ _____    ______ ____
ROOT
ATOM      1  C   LIG    1       -2.606  -3.419  -2.308  0.00  0.00    +0.160 C 
ATOM      2  C   LIG    1       -2.671  -2.629  -3.631  0.00  0.00    +0.050 C 
ATOM      3  C   LIG    1       -3.595  -3.480  -4.537  0.00  0.00    +0.040 C 
ATOM      4  C   LIG    1       -4.666  -3.996  -3.543  0.00  0.00    +0.050 C 
ATOM      5  C   LIG    1       -3.874  -4.290  -2.251  0.00  0.00    +0.000 C 
ENDROOT
BRANCH   1   6
ATOM      6  N   LIG    1       -2.581  -2.493  -1.168  0.00  0.00    -0.510 N 
ATOM      7  H   LIG    1       -3.355  -1.850  -1.240  0.00  0.00    +0.430 HD
ATOM      8  H   LIG    1       -2.656  -3.015  -0.308  0.00  0.00    +0.430 HD
BRANCH   6   9
ATOM      9  C   LIG    1       -1.319  -1.741  -1.176  0.00  0.00    +0.250 C 
BRANCH   9  10
ATOM     10  C   LIG    1       -1.293  -0.775   0.010  0.00  0.00    +0.060 C 
BRANCH  10  12
ATOM     11  C   LIG    1       -0.016   1.306   0.009  0.00  0.00    +0.060 C 
ATOM     12  C   LIG    1        0.002  -0.004   0.002  0.00  0.00    -0.070 C 
ENDBRANCH  10  12
ENDBRANCH   9  10
ENDBRANCH   6   9
ENDBRANCH   1   6
BRANCH   5  13
ATOM     13  C   LIG    1       -4.712  -3.918  -1.027  0.00  0.00    -0.010 C 
BRANCH  13  14
ATOM     14  C   LIG    1       -5.922  -4.850  -0.934  0.00  0.00    +0.020 C 
BRANCH  14  15
ATOM     15  C   LIG    1       -6.760  -4.478   0.290  0.00  0.00    -0.010 C 
ATOM     16  C   LIG    1       -7.970  -5.410   0.383  0.00  0.00    +0.020 C 
ENDBRANCH  14  15
ENDBRANCH  13  14
ENDBRANCH   5  13
TORSDOF 7
ENDMDL
MODEL      554
REMARK  Name = ZINC000393683398
REMARK                            x       y       z     vdW  Elec       q    Type
REMARK                         _______ _______ _______ _____ _____    ______ ____
ROOT
ATOM      1  C   LIG    1       -2.606  -3.419  -2.308  0.00  0.00    +0.160 C 
ATOM      2  C   LIG    1       -1.537  -4.516  -2.120  0.00  0.00    +0.060 C 
ATOM      3  C   LIG    1       -2.313  -5.699  -1.489  0.00  0.00    +0.020 C 
ATOM      4  C   LIG    1       -3.676  -5.645  -2.224  0.00  0.00    +0.060 C 
ATOM      5  C   LIG    1       -3.966  -4.136  -2.374  0.00  0.00    -0.020 C 
ENDROOT
BRANCH   1   6
ATOM      6  N   LIG    1       -2.581  -2.493  -1.168  0.00  0.00    -0.510 N 
ATOM      7  H   LIG    1       -3.355  -1.850  -1.240  0.00  0.00    +0.430 HD
ATOM      8  H   LIG    1       -2.656  -3.015  -0.308  0.00  0.00    +0.430 HD
BRANCH   6   9
ATOM      9  C   LIG    1       -1.319  -1.741  -1.176  0.00  0.00    +0.250 C 
BRANCH   9  10
ATOM     10  C   LIG    1       -1.293  -0.775   0.010  0.00  0.00    +0.060 C 
BRANCH  10  12
ATOM     11  C   LIG    1       -0.016   1.306   0.009  0.00  0.00    +0.060 C 
ATOM     12  C   LIG    1        0.002  -0.004   0.002  0.00  0.00    -0.070 C 
ENDBRANCH  10  12
ENDBRANCH   9  10
ENDBRANCH   6   9
ENDBRANCH   1   6
BRANCH   5  13
ATOM     13  C   LIG    1       -4.639  -3.864  -3.721  0.00  0.00    +0.030 C 
BRANCH  13  14
ATOM     14  C   LIG    1       -6.027  -4.508  -3.737  0.00  0.00    +0.010 C 
BRANCH  14  15
ATOM     15  C   LIG    1       -6.700  -4.235  -5.083  0.00  0.00    -0.010 C 
ATOM     16  C   LIG    1       -8.088  -4.879  -5.099  0.00  0.00    +0.010 C 
ENDBRANCH  14  15
ENDBRANCH  13  14
ENDBRANCH   5  13
TORSDOF 7
ENDMDL
MODEL      555
REMARK  Name = ZINC000393680551
REMARK                            x       y       z     vdW  Elec       q    Type
REMARK                         _______ _______ _______ _____ _____    ______ ____
ROOT
ATOM      1  N   LIG    1        1.730  -4.477   2.143  0.00  0.00    -0.510 N 
ATOM      2  H   LIG    1        1.948  -5.029   1.327  0.00  0.00    +0.430 HD
ATOM      3  H   LIG    1        0.829  -4.040   2.023  0.00  0.00    +0.430 HD
ENDROOT
BRANCH   1   4
ATOM      4  C   LIG    1        2.757  -3.441   2.321  0.00  0.00    +0.170 C 
ATOM      5  C   LIG    1        4.138  -4.097   2.377  0.00  0.00    +0.090 C 
BRANCH   4   6
ATOM      6  C   LIG    1        2.705  -2.464   1.145  0.00  0.00    +0.050 C 
BRANCH   6   7
ATOM      7  C   LIG    1        1.370  -1.717   1.161  0.00  0.00    +0.010 C 
BRANCH   7   8
ATOM      8  C   LIG    1        1.317  -0.740  -0.015  0.00  0.00    +0.060 C 
BRANCH   8  10
ATOM      9  C   LIG    1       -0.016   1.306   0.009  0.00  0.00    +0.030 C 
ATOM     10  C   LIG    1        0.002  -0.004   0.002  0.00  0.00    -0.070 C 
ENDBRANCH   8  10
ENDBRANCH   7   8
ENDBRANCH   6   7
ENDBRANCH   4   6
ENDBRANCH   1   4
BRANCH   1  11
ATOM     11  C   LIG    1        1.700  -5.345   3.328  0.00  0.00    +0.250 C 
BRANCH  11  12
ATOM     12  C   LIG    1        0.631  -6.423   3.143  0.00  0.00    +0.030 C 
BRANCH  12  13
ATOM     13  C   LIG    1        0.599  -7.327   4.377  0.00  0.00    +0.030 C 
BRANCH  13  14
ATOM     14  C   LIG    1       -0.470  -8.406   4.191  0.00  0.00    -0.030 C 
ATOM     15  C   LIG    1       -1.851  -7.750   4.135  0.00  0.00    +0.020 C 
ATOM     16  C   LIG    1       -0.418  -9.383   5.367  0.00  0.00    +0.030 C 
ENDBRANCH  13  14
ENDBRANCH  12  13
ENDBRANCH  11  12
ENDBRANCH   1  11
TORSDOF 9
ENDMDL
MODEL      556
REMARK  Name = ZINC000393680549
REMARK                            x       y       z     vdW  Elec       q    Type
REMARK                         _______ _______ _______ _____ _____    ______ ____
ROOT
ATOM      1  N   LIG    1        2.748  -2.690   3.583  0.00  0.00    -0.510 N 
ATOM      2  H   LIG    1        1.946  -2.078   3.604  0.00  0.00    +0.430 HD
ATOM      3  H   LIG    1        3.592  -2.141   3.654  0.00  0.00    +0.430 HD
ENDROOT
BRANCH   1   4
ATOM      4  C   LIG    1        2.757  -3.441   2.321  0.00  0.00    +0.170 C 
ATOM      5  C   LIG    1        4.037  -4.276   2.233  0.00  0.00    +0.090 C 
BRANCH   4   6
ATOM      6  C   LIG    1        2.705  -2.464   1.145  0.00  0.00    +0.050 C 
BRANCH   6   7
ATOM      7  C   LIG    1        1.370  -1.717   1.161  0.00  0.00    +0.010 C 
BRANCH   7   8
ATOM      8  C   LIG    1        1.317  -0.740  -0.015  0.00  0.00    +0.060 C 
BRANCH   8  10
ATOM      9  C   LIG    1       -0.016   1.306   0.009  0.00  0.00    +0.020 C 
ATOM     10  C   LIG    1        0.002  -0.004   0.002  0.00  0.00    -0.060 C 
ENDBRANCH   8  10
ENDBRANCH   7   8
ENDBRANCH   6   7
ENDBRANCH   4   6
ENDBRANCH   1   4
BRANCH   1  11
ATOM     11  C   LIG    1        2.678  -3.628   4.711  0.00  0.00    +0.250 C 
BRANCH  11  12
ATOM     12  C   LIG    1        2.668  -2.845   6.026  0.00  0.00    +0.030 C 
BRANCH  12  13
ATOM     13  C   LIG    1        2.595  -3.823   7.200  0.00  0.00    +0.030 C 
BRANCH  13  14
ATOM     14  C   LIG    1        2.585  -3.040   8.515  0.00  0.00    -0.030 C 
ATOM     15  C   LIG    1        3.918  -2.306   8.681  0.00  0.00    +0.020 C 
ATOM     16  C   LIG    1        2.387  -4.008   9.683  0.00  0.00    +0.030 C 
ENDBRANCH  13  14
ENDBRANCH  12  13
ENDBRANCH  11  12
ENDBRANCH   1  11
TORSDOF 9
ENDMDL
MODEL      557
REMARK  Name = ZINC000393683395
REMARK                            x       y       z     vdW  Elec       q    Type
REMARK                         _______ _______ _______ _____ _____    ______ ____
ROOT
ATOM      1  C   LIG    1       -2.606  -3.419  -2.308  0.00  0.00    +0.160 C 
ATOM      2  C   LIG    1       -1.537  -4.516  -2.120  0.00  0.00    +0.050 C 
ATOM      3  C   LIG    1       -2.204  -5.796  -2.683  0.00  0.00    +0.040 C 
ATOM      4  C   LIG    1       -3.676  -5.645  -2.224  0.00  0.00    +0.050 C 
ATOM      5  C   LIG    1       -3.966  -4.136  -2.374  0.00  0.00    +0.000 C 
ENDROOT
BRANCH   1   6
ATOM      6  N   LIG    1       -2.581  -2.493  -1.168  0.00  0.00    -0.510 N 
ATOM      7  H   LIG    1       -3.355  -1.850  -1.240  0.00  0.00    +0.430 HD
ATOM      8  H   LIG    1       -2.656  -3.015  -0.308  0.00  0.00    +0.430 HD
BRANCH   6   9
ATOM      9  C   LIG    1       -1.319  -1.741  -1.176  0.00  0.00    +0.250 C 
BRANCH   9  10
ATOM     10  C   LIG    1       -1.293  -0.775   0.010  0.00  0.00    +0.060 C 
BRANCH  10  12
ATOM     11  C   LIG    1       -0.016   1.306   0.009  0.00  0.00    +0.060 C 
ATOM     12  C   LIG    1        0.002  -0.004   0.002  0.00  0.00    -0.070 C 
ENDBRANCH  10  12
ENDBRANCH   9  10
ENDBRANCH   6   9
ENDBRANCH   1   6
BRANCH   5  13
ATOM     13  C   LIG    1       -4.867  -3.659  -1.233  0.00  0.00    -0.010 C 
BRANCH  13  14
ATOM     14  C   LIG    1       -6.244  -4.313  -1.364  0.00  0.00    +0.020 C 
BRANCH  14  15
ATOM     15  C   LIG    1       -7.145  -3.836  -0.223  0.00  0.00    -0.010 C 
ATOM     16  C   LIG    1       -8.523  -4.489  -0.354  0.00  0.00    +0.020 C 
ENDBRANCH  14  15
ENDBRANCH  13  14
ENDBRANCH   5  13
TORSDOF 7
ENDMDL
MODEL      558
REMARK  Name = ZINC000393683393
REMARK                            x       y       z     vdW  Elec       q    Type
REMARK                         _______ _______ _______ _____ _____    ______ ____
ROOT
ATOM      1  C   LIG    1       -2.606  -3.419  -2.308  0.00  0.00    +0.160 C 
ATOM      2  C   LIG    1       -2.671  -2.631  -3.627  0.00  0.00    +0.040 C 
ATOM      3  C   LIG    1       -3.980  -3.051  -4.328  0.00  0.00    +0.040 C 
ATOM      4  C   LIG    1       -4.297  -4.446  -3.735  0.00  0.00    +0.050 C 
ATOM      5  C   LIG    1       -3.877  -4.292  -2.251  0.00  0.00    -0.010 C 
ENDROOT
BRANCH   1   6
ATOM      6  N   LIG    1       -2.581  -2.493  -1.168  0.00  0.00    -0.510 N 
ATOM      7  H   LIG    1       -3.355  -1.850  -1.240  0.00  0.00    +0.430 HD
ATOM      8  H   LIG    1       -2.656  -3.015  -0.308  0.00  0.00    +0.430 HD
BRANCH   6   9
ATOM      9  C   LIG    1       -1.319  -1.741  -1.176  0.00  0.00    +0.250 C 
BRANCH   9  10
ATOM     10  C   LIG    1       -1.293  -0.775   0.010  0.00  0.00    +0.060 C 
BRANCH  10  12
ATOM     11  C   LIG    1       -0.016   1.306   0.009  0.00  0.00    +0.060 C 
ATOM     12  C   LIG    1        0.002  -0.004   0.002  0.00  0.00    -0.070 C 
ENDBRANCH  10  12
ENDBRANCH   9  10
ENDBRANCH   6   9
ENDBRANCH   1   6
BRANCH   5  13
ATOM     13  C   LIG    1       -3.567  -5.659  -1.638  0.00  0.00    +0.030 C 
BRANCH  13  14
ATOM     14  C   LIG    1       -4.850  -6.488  -1.565  0.00  0.00    +0.010 C 
BRANCH  14  15
ATOM     15  C   LIG    1       -4.540  -7.855  -0.952  0.00  0.00    -0.010 C 
ATOM     16  C   LIG    1       -5.823  -8.685  -0.879  0.00  0.00    +0.010 C 
ENDBRANCH  14  15
ENDBRANCH  13  14
ENDBRANCH   5  13
TORSDOF 7
ENDMDL
MODEL      559
REMARK  Name = ZINC000657818434
REMARK                            x       y       z     vdW  Elec       q    Type
REMARK                         _______ _______ _______ _____ _____    ______ ____
ROOT
ATOM      1  C   LIG    1       -1.319  -1.741  -1.176  0.00  0.00    +0.020 C 
ATOM      2  C   LIG    1       -1.331  -0.944  -2.482  0.00  0.00    +0.010 C 
ATOM      3  C   LIG    1       -1.357  -1.909  -3.669  0.00  0.00    +0.030 C 
ATOM      4  C   LIG    1       -2.613  -2.779  -3.591  0.00  0.00    +0.010 C 
ATOM      5  C   LIG    1       -2.601  -3.576  -2.285  0.00  0.00    +0.060 C 
ATOM      6  C   LIG    1       -2.575  -2.611  -1.099  0.00  0.00    +0.170 C 
ENDROOT
BRANCH   6   7
ATOM      7  N   LIG    1       -3.767  -1.754  -1.138  0.00  0.00    -0.510 N 
ATOM      8  H   LIG    1       -3.819  -1.290  -2.033  0.00  0.00    +0.420 HD
ATOM      9  H   LIG    1       -3.710  -1.063  -0.405  0.00  0.00    +0.420 HD
BRANCH   7  10
ATOM     10  C   LIG    1       -4.968  -2.577  -0.943  0.00  0.00    +0.160 C 
ATOM     11  C   LIG    1       -4.950  -3.180   0.463  0.00  0.00    +0.090 C 
BRANCH  10  12
ATOM     12  C   LIG    1       -6.216  -1.706  -1.108  0.00  0.00    +0.050 C 
ATOM     13  C   LIG    1       -6.299  -1.203  -2.551  0.00  0.00    +0.030 C 
ENDBRANCH  10  12
ENDBRANCH   7  10
ENDBRANCH   6   7
BRANCH   1  14
ATOM     14  C   LIG    1       -1.293  -0.775   0.010  0.00  0.00    +0.050 C 
BRANCH  14  16
ATOM     15  C   LIG    1       -0.016   1.306   0.009  0.00  0.00    +0.040 C 
ATOM     16  C   LIG    1        0.002  -0.004   0.002  0.00  0.00    -0.050 C 
ENDBRANCH  14  16
ENDBRANCH   1  14
TORSDOF 5
ENDMDL
MODEL      560
REMARK  Name = ZINC000070592092
REMARK                            x       y       z     vdW  Elec       q    Type
REMARK                         _______ _______ _______ _____ _____    ______ ____
ROOT
ATOM      1  N   LIG    1        3.317  -3.863   2.945  0.00  0.00    -0.510 N 
ATOM      2  H   LIG    1        2.508  -4.296   3.365  0.00  0.00    +0.420 HD
ATOM      3  H   LIG    1        3.755  -3.247   3.613  0.00  0.00    +0.430 HD
ENDROOT
BRANCH   1   4
ATOM      4  C   LIG    1        4.272  -4.902   2.538  0.00  0.00    +0.060 C 
ATOM      5  C   LIG    1        5.568  -4.245   2.059  0.00  0.00    +0.080 C 
ATOM      6  C   LIG    1        3.671  -5.731   1.401  0.00  0.00    +0.090 C 
BRANCH   4   7
ATOM      7  C   LIG    1        4.573  -5.814   3.729  0.00  0.00    +0.070 C 
BRANCH   7   8
ATOM      8  C   LIG    1        4.821  -4.960   4.975  0.00  0.00    -0.090 C 
ATOM      9  C   LIG    1        5.704  -3.765   4.606  0.00  0.00    +0.040 C 
ATOM     10  C   LIG    1        5.524  -5.804   6.040  0.00  0.00    +0.070 C 
ATOM     11  C   LIG    1        3.485  -4.456   5.523  0.00  0.00    +0.030 C 
ENDBRANCH   7   8
ENDBRANCH   4   7
ENDBRANCH   1   4
BRANCH   1  12
ATOM     12  C   LIG    1        2.902  -3.091   1.766  0.00  0.00    +0.230 C 
BRANCH  12  13
ATOM     13  C   LIG    1        1.907  -2.009   2.189  0.00  0.00    +0.040 C 
BRANCH  13  14
ATOM     14  C   LIG    1        1.475  -1.205   0.962  0.00  0.00    +0.070 C 
BRANCH  14  16
ATOM     15  C   LIG    1        0.726   1.116   1.083  0.00  0.00    +0.030 C 
ATOM     16  C   LIG    1        0.495  -0.139   1.379  0.00  0.00    -0.070 C 
ENDBRANCH  14  16
ENDBRANCH  13  14
ENDBRANCH  12  13
ENDBRANCH   1  12
TORSDOF 7
ENDMDL
MODEL      561
REMARK  Name = ZINC000657818436
REMARK                            x       y       z     vdW  Elec       q    Type
REMARK                         _______ _______ _______ _____ _____    ______ ____
ROOT
ATOM      1  C   LIG    1       -1.191  -3.399  -1.815  0.00  0.00    +0.000 C 
ATOM      2  C   LIG    1       -1.008  -3.149  -3.313  0.00  0.00    +0.050 C 
ATOM      3  C   LIG    1       -1.342  -4.425  -4.088  0.00  0.00    +0.020 C 
ATOM      4  C   LIG    1       -2.793  -4.824  -3.811  0.00  0.00    +0.030 C 
ATOM      5  C   LIG    1       -2.976  -5.074  -2.313  0.00  0.00    +0.040 C 
ATOM      6  C   LIG    1       -2.642  -3.798  -1.538  0.00  0.00    +0.160 C 
ENDROOT
BRANCH   6   7
ATOM      7  N   LIG    1       -2.818  -4.038  -0.099  0.00  0.00    -0.510 N 
ATOM      8  H   LIG    1       -2.511  -3.227   0.417  0.00  0.00    +0.420 HD
ATOM      9  H   LIG    1       -2.271  -4.840   0.177  0.00  0.00    +0.420 HD
BRANCH   7  10
ATOM     10  C   LIG    1       -4.237  -4.293   0.185  0.00  0.00    +0.160 C 
ATOM     11  C   LIG    1       -4.358  -5.153   1.444  0.00  0.00    +0.090 C 
BRANCH  10  12
ATOM     12  C   LIG    1       -4.959  -2.962   0.404  0.00  0.00    +0.050 C 
ATOM     13  C   LIG    1       -4.970  -2.166  -0.902  0.00  0.00    +0.030 C 
ENDBRANCH  10  12
ENDBRANCH   7  10
ENDBRANCH   6   7
BRANCH   1  14
ATOM     14  C   LIG    1       -0.857  -2.123  -1.040  0.00  0.00    +0.040 C 
BRANCH  14  16
ATOM     15  C   LIG    1        0.964  -0.621  -1.664  0.00  0.00    +0.050 C 
ATOM     16  C   LIG    1        0.604  -1.797  -1.214  0.00  0.00    -0.070 C 
ENDBRANCH  14  16
ENDBRANCH   1  14
TORSDOF 5
ENDMDL
MODEL      562
REMARK  Name = ZINC000657818433
REMARK                            x       y       z     vdW  Elec       q    Type
REMARK                         _______ _______ _______ _____ _____    ______ ____
ROOT
ATOM      1  C   LIG    1       -1.948  -2.261  -2.215  0.00  0.00    +0.020 C 
ATOM      2  C   LIG    1       -2.696  -2.091  -3.538  0.00  0.00    +0.020 C 
ATOM      3  C   LIG    1       -3.219  -3.451  -4.006  0.00  0.00    +0.030 C 
ATOM      4  C   LIG    1       -4.170  -4.022  -2.953  0.00  0.00    +0.010 C 
ATOM      5  C   LIG    1       -3.422  -4.191  -1.629  0.00  0.00    +0.060 C 
ATOM      6  C   LIG    1       -2.899  -2.832  -1.161  0.00  0.00    +0.170 C 
ENDROOT
BRANCH   6   7
ATOM      7  N   LIG    1       -4.028  -1.912  -0.970  0.00  0.00    -0.510 N 
ATOM      8  H   LIG    1       -4.860  -2.441  -0.753  0.00  0.00    +0.420 HD
ATOM      9  H   LIG    1       -4.178  -1.383  -1.817  0.00  0.00    +0.420 HD
BRANCH   7  10
ATOM     10  C   LIG    1       -3.730  -0.992   0.136  0.00  0.00    +0.160 C 
ATOM     11  C   LIG    1       -3.592  -1.786   1.436  0.00  0.00    +0.090 C 
BRANCH  10  12
ATOM     12  C   LIG    1       -4.866   0.023   0.276  0.00  0.00    +0.050 C 
ATOM     13  C   LIG    1       -4.923   0.900  -0.976  0.00  0.00    +0.030 C 
ENDBRANCH  10  12
ENDBRANCH   7  10
ENDBRANCH   6   7
BRANCH   1  14
ATOM     14  C   LIG    1       -1.425  -0.901  -1.746  0.00  0.00    +0.050 C 
BRANCH  14  16
ATOM     15  C   LIG    1       -0.416   0.732  -3.255  0.00  0.00    +0.040 C 
ATOM     16  C   LIG    1       -0.330  -0.438  -2.672  0.00  0.00    -0.050 C 
ENDBRANCH  14  16
ENDBRANCH   1  14
TORSDOF 5
ENDMDL
MODEL      563
REMARK  Name = ZINC000657818416
REMARK                            x       y       z     vdW  Elec       q    Type
REMARK                         _______ _______ _______ _____ _____    ______ ____
ROOT
ATOM      1  C   LIG    1       -1.319  -1.741  -1.176  0.00  0.00    +0.000 C 
ATOM      2  C   LIG    1       -1.331  -0.944  -2.482  0.00  0.00    +0.050 C 
ATOM      3  C   LIG    1       -1.357  -1.909  -3.669  0.00  0.00    +0.020 C 
ATOM      4  C   LIG    1       -2.613  -2.779  -3.591  0.00  0.00    +0.030 C 
ATOM      5  C   LIG    1       -2.601  -3.576  -2.285  0.00  0.00    +0.040 C 
ATOM      6  C   LIG    1       -2.575  -2.611  -1.099  0.00  0.00    +0.160 C 
ENDROOT
BRANCH   6   7
ATOM      7  N   LIG    1       -2.563  -3.376   0.155  0.00  0.00    -0.510 N 
ATOM      8  H   LIG    1       -2.463  -2.743   0.935  0.00  0.00    +0.420 HD
ATOM      9  H   LIG    1       -1.790  -4.024   0.147  0.00  0.00    +0.420 HD
BRANCH   7  10
ATOM     10  C   LIG    1       -3.824  -4.120   0.287  0.00  0.00    +0.160 C 
ATOM     11  C   LIG    1       -4.985  -3.134   0.425  0.00  0.00    +0.090 C 
BRANCH  10  12
ATOM     12  C   LIG    1       -3.762  -5.012   1.528  0.00  0.00    +0.050 C 
ATOM     13  C   LIG    1       -2.681  -6.078   1.336  0.00  0.00    +0.030 C 
ENDBRANCH  10  12
ENDBRANCH   7  10
ENDBRANCH   6   7
BRANCH   1  14
ATOM     14  C   LIG    1       -1.293  -0.775   0.010  0.00  0.00    +0.040 C 
BRANCH  14  16
ATOM     15  C   LIG    1       -0.016   1.306   0.009  0.00  0.00    +0.050 C 
ATOM     16  C   LIG    1        0.002  -0.004   0.002  0.00  0.00    -0.070 C 
ENDBRANCH  14  16
ENDBRANCH   1  14
TORSDOF 5
ENDMDL
MODEL      564
REMARK  Name = ZINC000590941441
REMARK                            x       y       z     vdW  Elec       q    Type
REMARK                         _______ _______ _______ _____ _____    ______ ____
ROOT
ATOM      1  N   LIG    1        1.860  -1.474   0.544  0.00  0.00    -0.380 N 
ATOM      2  H   LIG    1        2.483  -1.241   1.302  0.00  0.00    +0.420 HD
ENDROOT
BRANCH   1   3
ATOM      3  C   LIG    1        2.621  -2.112  -0.539  0.00  0.00    +0.160 C 
ATOM      4  C   LIG    1        3.707  -1.154  -1.032  0.00  0.00    +0.040 C 
ATOM      5  C   LIG    1        4.500  -1.818  -2.159  0.00  0.00    +0.030 C 
ATOM      6  C   LIG    1        5.150  -3.101  -1.638  0.00  0.00    +0.020 C 
ATOM      7  C   LIG    1        4.064  -4.059  -1.144  0.00  0.00    +0.030 C 
ATOM      8  C   LIG    1        3.272  -3.395  -0.017  0.00  0.00    +0.040 C 
ENDBRANCH   1   3
BRANCH   1   9
ATOM      9  C   LIG    1        0.826  -2.400   1.027  0.00  0.00    +0.160 C 
ATOM     10  C   LIG    1        1.434  -3.346   2.065  0.00  0.00    +0.070 C 
ATOM     11  C   LIG    1        0.281  -3.214  -0.148  0.00  0.00    +0.080 C 
ENDBRANCH   1   9
BRANCH   1  12
ATOM     12  C   LIG    1        1.224  -0.250   0.039  0.00  0.00    +0.300 C 
BRANCH  12  14
ATOM     13  C   LIG    1        1.415   1.488   1.743  0.00  0.00    +0.120 C 
ATOM     14  C   LIG    1        0.683   0.549   1.197  0.00  0.00    -0.190 C 
ATOM     15  C   LIG    1       -0.700   0.268   1.726  0.00  0.00    +0.100 C 
ENDBRANCH  12  14
ENDBRANCH   1  12
TORSDOF 4
ENDMDL
MODEL      565
REMARK  Name = ZINC001181410924
REMARK                            x       y       z     vdW  Elec       q    Type
REMARK                         _______ _______ _______ _____ _____    ______ ____
ROOT
ATOM      1  C   LIG    1        4.093  -4.188   2.304  0.00  0.00    +0.170 C 
ATOM      2  C   LIG    1        4.197  -5.073   3.547  0.00  0.00    +0.090 C 
ENDROOT
BRANCH   1   3
ATOM      3  N   LIG    1        4.170  -5.025   1.099  0.00  0.00    -0.510 N 
ATOM      4  H   LIG    1        4.019  -4.453   0.282  0.00  0.00    +0.430 HD
ATOM      5  H   LIG    1        3.463  -5.744   1.142  0.00  0.00    +0.430 HD
BRANCH   3   6
ATOM      6  C   LIG    1        5.498  -5.649   1.021  0.00  0.00    +0.250 C 
BRANCH   6   7
ATOM      7  C   LIG    1        5.579  -6.521  -0.234  0.00  0.00    +0.030 C 
BRANCH   7   8
ATOM      8  C   LIG    1        6.962  -7.171  -0.315  0.00  0.00    +0.070 C 
BRANCH   8   9
ATOM      9  C   LIG    1        7.042  -8.029  -1.551  0.00  0.00    -0.070 C 
ATOM     10  C   LIG    1        8.001  -7.837  -2.421  0.00  0.00    +0.030 C 
ENDBRANCH   8   9
ENDBRANCH   7   8
ENDBRANCH   6   7
ENDBRANCH   3   6
ENDBRANCH   1   3
BRANCH   1  11
ATOM     11  C   LIG    1        2.757  -3.441   2.321  0.00  0.00    +0.050 C 
BRANCH  11  12
ATOM     12  C   LIG    1        2.705  -2.464   1.145  0.00  0.00    -0.000 C 
BRANCH  12  13
ATOM     13  C   LIG    1        1.370  -1.717   1.161  0.00  0.00    +0.020 C 
BRANCH  13  14
ATOM     14  C   LIG    1        1.317  -0.740  -0.015  0.00  0.00    +0.050 C 
BRANCH  14  16
ATOM     15  C   LIG    1       -0.016   1.306   0.009  0.00  0.00    +0.020 C 
ATOM     16  C   LIG    1        0.002  -0.004   0.002  0.00  0.00    -0.060 C 
ENDBRANCH  14  16
ENDBRANCH  13  14
ENDBRANCH  12  13
ENDBRANCH  11  12
ENDBRANCH   1  11
TORSDOF 10
ENDMDL
MODEL      566
REMARK  Name = ZINC001181410925
REMARK                            x       y       z     vdW  Elec       q    Type
REMARK                         _______ _______ _______ _____ _____    ______ ____
ROOT
ATOM      1  C   LIG    1        4.093  -4.188   2.304  0.00  0.00    +0.170 C 
ATOM      2  C   LIG    1        4.096  -5.252   3.403  0.00  0.00    +0.090 C 
ENDROOT
BRANCH   1   3
ATOM      3  N   LIG    1        5.188  -3.238   2.539  0.00  0.00    -0.510 N 
ATOM      4  H   LIG    1        5.108  -2.856   3.469  0.00  0.00    +0.430 HD
ATOM      5  H   LIG    1        5.136  -2.491   1.863  0.00  0.00    +0.430 HD
BRANCH   3   6
ATOM      6  C   LIG    1        6.476  -3.933   2.404  0.00  0.00    +0.250 C 
BRANCH   6   7
ATOM      7  C   LIG    1        7.617  -2.943   2.649  0.00  0.00    +0.030 C 
BRANCH   7   8
ATOM      8  C   LIG    1        8.958  -3.666   2.509  0.00  0.00    +0.070 C 
BRANCH   8   9
ATOM      9  C   LIG    1       10.081  -2.691   2.750  0.00  0.00    -0.070 C 
ATOM     10  C   LIG    1       10.987  -2.948   3.661  0.00  0.00    +0.030 C 
ENDBRANCH   8   9
ENDBRANCH   7   8
ENDBRANCH   6   7
ENDBRANCH   3   6
ENDBRANCH   1   3
BRANCH   1  11
ATOM     11  C   LIG    1        2.757  -3.441   2.321  0.00  0.00    +0.050 C 
BRANCH  11  12
ATOM     12  C   LIG    1        2.705  -2.464   1.145  0.00  0.00    -0.000 C 
BRANCH  12  13
ATOM     13  C   LIG    1        1.370  -1.717   1.161  0.00  0.00    +0.020 C 
BRANCH  13  14
ATOM     14  C   LIG    1        1.317  -0.740  -0.015  0.00  0.00    +0.050 C 
BRANCH  14  16
ATOM     15  C   LIG    1       -0.016   1.306   0.009  0.00  0.00    +0.020 C 
ATOM     16  C   LIG    1        0.002  -0.004   0.002  0.00  0.00    -0.060 C 
ENDBRANCH  14  16
ENDBRANCH  13  14
ENDBRANCH  12  13
ENDBRANCH  11  12
ENDBRANCH   1  11
TORSDOF 10
ENDMDL
MODEL      567
REMARK  Name = ZINC000658232988
REMARK                            x       y       z     vdW  Elec       q    Type
REMARK                         _______ _______ _______ _____ _____    ______ ____
ROOT
ATOM      1  N   LIG    1        3.916  -1.440   1.154  0.00  0.00    -0.510 N 
ATOM      2  H   LIG    1        4.067  -0.992   2.046  0.00  0.00    +0.420 HD
ATOM      3  H   LIG    1        3.634  -0.750   0.474  0.00  0.00    +0.420 HD
ENDROOT
BRANCH   1   4
ATOM      4  C   LIG    1        2.863  -2.456   1.288  0.00  0.00    +0.160 C 
BRANCH   4   5
ATOM      5  C   LIG    1        3.230  -3.426   2.413  0.00  0.00    +0.040 C 
ATOM      6  C   LIG    1        2.207  -4.563   2.460  0.00  0.00    +0.060 C 
ENDBRANCH   4   5
BRANCH   4   7
ATOM      7  C   LIG    1        1.534  -1.772   1.617  0.00  0.00    +0.070 C 
BRANCH   7   8
ATOM      8  C   LIG    1        1.105  -0.897   0.438  0.00  0.00    +0.050 C 
BRANCH   8  10
ATOM      9  C   LIG    1       -0.306   1.080   0.688  0.00  0.00    +0.040 C 
ATOM     10  C   LIG    1       -0.204  -0.224   0.762  0.00  0.00    -0.050 C 
ENDBRANCH   8  10
ENDBRANCH   7   8
ENDBRANCH   4   7
ENDBRANCH   1   4
BRANCH   1  11
ATOM     11  C   LIG    1        5.162  -2.082   0.712  0.00  0.00    +0.200 C 
BRANCH  11  12
ATOM     12  C   LIG    1        4.978  -2.630  -0.705  0.00  0.00    -0.090 C 
ATOM     13  C   LIG    1        5.843  -2.027  -1.813  0.00  0.00    +0.050 C 
ATOM     14  C   LIG    1        6.129  -3.441  -1.303  0.00  0.00    +0.070 C 
ENDBRANCH  11  12
BRANCH  11  15
ATOM     15  C   LIG    1        6.295  -1.054   0.719  0.00  0.00    +0.050 C 
ATOM     16  C   LIG    1        6.562  -0.598   2.155  0.00  0.00    +0.040 C 
ENDBRANCH  11  15
ENDBRANCH   1  11
TORSDOF 8
ENDMDL
MODEL      568
REMARK  Name = ZINC000658232986
REMARK                            x       y       z     vdW  Elec       q    Type
REMARK                         _______ _______ _______ _____ _____    ______ ____
ROOT
ATOM      1  N   LIG    1        2.576  -3.498  -0.246  0.00  0.00    -0.510 N 
ATOM      2  H   LIG    1        2.548  -2.804  -0.977  0.00  0.00    +0.420 HD
ATOM      3  H   LIG    1        1.689  -3.977  -0.202  0.00  0.00    +0.420 HD
ENDROOT
BRANCH   1   4
ATOM      4  C   LIG    1        2.843  -2.844   1.042  0.00  0.00    +0.170 C 
BRANCH   4   5
ATOM      5  C   LIG    1        4.062  -1.929   0.906  0.00  0.00    +0.050 C 
ATOM      6  C   LIG    1        3.792  -0.875  -0.169  0.00  0.00    +0.020 C 
ENDBRANCH   4   5
BRANCH   4   7
ATOM      7  C   LIG    1        3.119  -3.907   2.107  0.00  0.00    +0.060 C 
BRANCH   7   8
ATOM      8  C   LIG    1        1.900  -4.822   2.242  0.00  0.00    +0.030 C 
BRANCH   8  10
ATOM      9  C   LIG    1        1.349  -6.015   4.300  0.00  0.00    +0.050 C 
ATOM     10  C   LIG    1        2.172  -5.869   3.291  0.00  0.00    -0.070 C 
ENDBRANCH   8  10
ENDBRANCH   7   8
ENDBRANCH   4   7
ENDBRANCH   1   4
BRANCH   1  11
ATOM     11  C   LIG    1        3.642  -4.468  -0.533  0.00  0.00    +0.200 C 
BRANCH  11  12
ATOM     12  C   LIG    1        4.936  -3.721  -0.862  0.00  0.00    -0.070 C 
ATOM     13  C   LIG    1        6.131  -3.936   0.069  0.00  0.00    +0.050 C 
ATOM     14  C   LIG    1        6.131  -4.553  -1.331  0.00  0.00    +0.070 C 
ENDBRANCH  11  12
BRANCH  11  15
ATOM     15  C   LIG    1        3.235  -5.335  -1.726  0.00  0.00    +0.050 C 
ATOM     16  C   LIG    1        2.012  -6.175  -1.353  0.00  0.00    +0.030 C 
ENDBRANCH  11  15
ENDBRANCH   1  11
TORSDOF 8
ENDMDL
MODEL      569
REMARK  Name = ZINC000658232990
REMARK                            x       y       z     vdW  Elec       q    Type
REMARK                         _______ _______ _______ _____ _____    ______ ____
ROOT
ATOM      1  N   LIG    1        3.752  -1.465   1.553  0.00  0.00    -0.510 N 
ATOM      2  H   LIG    1        3.594  -1.347   2.543  0.00  0.00    +0.420 HD
ATOM      3  H   LIG    1        3.728  -0.564   1.099  0.00  0.00    +0.420 HD
ENDROOT
BRANCH   1   4
ATOM      4  C   LIG    1        2.703  -2.324   0.989  0.00  0.00    +0.170 C 
BRANCH   4   5
ATOM      5  C   LIG    1        3.072  -2.704  -0.447  0.00  0.00    +0.050 C 
ATOM      6  C   LIG    1        3.178  -1.437  -1.298  0.00  0.00    +0.020 C 
ENDBRANCH   4   5
BRANCH   4   7
ATOM      7  C   LIG    1        2.573  -3.593   1.834  0.00  0.00    +0.060 C 
BRANCH   7   8
ATOM      8  C   LIG    1        2.237  -3.211   3.277  0.00  0.00    +0.040 C 
BRANCH   8  10
ATOM      9  C   LIG    1        2.828  -4.601   5.196  0.00  0.00    +0.040 C 
ATOM     10  C   LIG    1        2.109  -4.461   4.110  0.00  0.00    -0.050 C 
ENDBRANCH   8  10
ENDBRANCH   7   8
ENDBRANCH   4   7
ENDBRANCH   1   4
BRANCH   1  11
ATOM     11  C   LIG    1        5.064  -2.088   1.337  0.00  0.00    +0.200 C 
BRANCH  11  12
ATOM     12  C   LIG    1        5.211  -3.301   2.258  0.00  0.00    -0.070 C 
ATOM     13  C   LIG    1        5.410  -4.668   1.599  0.00  0.00    +0.050 C 
ATOM     14  C   LIG    1        6.578  -3.985   2.313  0.00  0.00    +0.070 C 
ENDBRANCH  11  12
BRANCH  11  15
ATOM     15  C   LIG    1        6.167  -1.075   1.649  0.00  0.00    +0.050 C 
ATOM     16  C   LIG    1        6.098   0.080   0.647  0.00  0.00    +0.040 C 
ENDBRANCH  11  15
ENDBRANCH   1  11
TORSDOF 8
ENDMDL
MODEL      570
REMARK  Name = ZINC000658232984
REMARK                            x       y       z     vdW  Elec       q    Type
REMARK                         _______ _______ _______ _____ _____    ______ ____
ROOT
ATOM      1  N   LIG    1        2.656  -3.396  -0.203  0.00  0.00    -0.510 N 
ATOM      2  H   LIG    1        2.389  -2.962  -1.074  0.00  0.00    +0.420 HD
ATOM      3  H   LIG    1        1.959  -4.076   0.062  0.00  0.00    +0.430 HD
ENDROOT
BRANCH   1   4
ATOM      4  C   LIG    1        2.761  -2.369   0.843  0.00  0.00    +0.170 C 
BRANCH   4   5
ATOM      5  C   LIG    1        3.889  -1.397   0.492  0.00  0.00    +0.050 C 
ATOM      6  C   LIG    1        3.576  -0.711  -0.839  0.00  0.00    +0.040 C 
ENDBRANCH   4   5
BRANCH   4   7
ATOM      7  C   LIG    1        3.062  -3.038   2.186  0.00  0.00    +0.060 C 
BRANCH   7   8
ATOM      8  C   LIG    1        1.882  -3.923   2.591  0.00  0.00    +0.040 C 
BRANCH   8  10
ATOM      9  C   LIG    1        1.344  -4.448   4.914  0.00  0.00    +0.050 C 
ATOM     10  C   LIG    1        2.179  -4.582   3.914  0.00  0.00    -0.070 C 
ENDBRANCH   8  10
ENDBRANCH   7   8
ENDBRANCH   4   7
ENDBRANCH   1   4
BRANCH   1  11
ATOM     11  C   LIG    1        3.955  -4.063  -0.366  0.00  0.00    +0.200 C 
BRANCH  11  12
ATOM     12  C   LIG    1        4.087  -5.181   0.670  0.00  0.00    -0.080 C 
ATOM     13  C   LIG    1        4.214  -6.614   0.149  0.00  0.00    +0.050 C 
ATOM     14  C   LIG    1        5.430  -5.910   0.755  0.00  0.00    +0.070 C 
ENDBRANCH  11  12
BRANCH  11  15
ATOM     15  C   LIG    1        4.050  -4.657  -1.773  0.00  0.00    +0.050 C 
ATOM     16  C   LIG    1        4.043  -3.527  -2.805  0.00  0.00    +0.030 C 
ENDBRANCH  11  15
ENDBRANCH   1  11
TORSDOF 8
ENDMDL
MODEL      571
REMARK  Name = ZINC000658321454
REMARK                            x       y       z     vdW  Elec       q    Type
REMARK                         _______ _______ _______ _____ _____    ______ ____
ROOT
ATOM      1  N   LIG    1       -2.754  -3.631  -0.041  0.00  0.00    -0.470 N 
ATOM      2  H   LIG    1       -2.477  -2.869   0.559  0.00  0.00    +0.420 HD
ATOM      3  H   LIG    1       -2.163  -4.429   0.136  0.00  0.00    +0.420 HD
ENDROOT
BRANCH   1   4
ATOM      4  C   LIG    1       -4.152  -3.987   0.234  0.00  0.00    -0.050 C 
ATOM      5  C   LIG    1       -4.489  -5.474   0.371  0.00  0.00    +0.100 C 
ATOM      6  C   LIG    1       -4.474  -4.576   1.609  0.00  0.00    +0.100 C 
BRANCH   4   7
ATOM      7  C   LIG    1       -5.203  -3.081  -0.410  0.00  0.00    +0.110 C 
BRANCH   7   8
ATOM      8  C   LIG    1       -5.047  -1.657   0.127  0.00  0.00    -0.040 C 
ATOM      9  C   LIG    1       -5.379  -1.637   1.621  0.00  0.00    +0.030 C 
ATOM     10  C   LIG    1       -6.000  -0.723  -0.620  0.00  0.00    +0.040 C 
ENDBRANCH   7   8
ENDBRANCH   4   7
ENDBRANCH   1   4
BRANCH   1  11
ATOM     11  C   LIG    1       -2.620  -3.223  -1.445  0.00  0.00    +0.160 C 
ATOM     12  C   LIG    1       -2.914  -4.418  -2.354  0.00  0.00    +0.080 C 
BRANCH  11  13
ATOM     13  C   LIG    1       -1.194  -2.728  -1.699  0.00  0.00    +0.060 C 
BRANCH  13  14
ATOM     14  C   LIG    1       -0.942  -1.459  -0.882  0.00  0.00    +0.040 C 
BRANCH  14  16
ATOM     15  C   LIG    1        0.666   0.255  -1.543  0.00  0.00    +0.050 C 
ATOM     16  C   LIG    1        0.462  -0.972  -1.132  0.00  0.00    -0.070 C 
ENDBRANCH  14  16
ENDBRANCH  13  14
ENDBRANCH  11  13
ENDBRANCH   1  11
TORSDOF 7
ENDMDL
MODEL      572
REMARK  Name = ZINC000658321455
REMARK                            x       y       z     vdW  Elec       q    Type
REMARK                         _______ _______ _______ _____ _____    ______ ____
ROOT
ATOM      1  N   LIG    1       -3.458  -1.872  -1.131  0.00  0.00    -0.470 N 
ATOM      2  H   LIG    1       -3.021  -1.589  -1.996  0.00  0.00    +0.430 HD
ATOM      3  H   LIG    1       -3.494  -1.086  -0.499  0.00  0.00    +0.420 HD
ENDROOT
BRANCH   1   4
ATOM      4  C   LIG    1       -4.822  -2.344  -1.403  0.00  0.00    -0.050 C 
ATOM      5  C   LIG    1       -5.951  -1.778  -0.539  0.00  0.00    +0.100 C 
ATOM      6  C   LIG    1       -5.811  -1.340  -1.998  0.00  0.00    +0.110 C 
BRANCH   4   7
ATOM      7  C   LIG    1       -4.939  -3.802  -1.852  0.00  0.00    +0.110 C 
BRANCH   7   8
ATOM      8  C   LIG    1       -4.168  -3.996  -3.160  0.00  0.00    -0.040 C 
ATOM      9  C   LIG    1       -4.846  -3.196  -4.274  0.00  0.00    +0.030 C 
ATOM     10  C   LIG    1       -4.159  -5.480  -3.530  0.00  0.00    +0.040 C 
ENDBRANCH   7   8
ENDBRANCH   4   7
ENDBRANCH   1   4
BRANCH   1  11
ATOM     11  C   LIG    1       -2.678  -2.956  -0.520  0.00  0.00    +0.170 C 
ATOM     12  C   LIG    1       -1.185  -2.642  -0.642  0.00  0.00    +0.090 C 
BRANCH  11  13
ATOM     13  C   LIG    1       -3.052  -3.084   0.958  0.00  0.00    +0.070 C 
BRANCH  13  14
ATOM     14  C   LIG    1       -4.413  -3.772   1.081  0.00  0.00    +0.050 C 
BRANCH  14  16
ATOM     15  C   LIG    1       -5.920  -3.420   2.970  0.00  0.00    +0.030 C 
ATOM     16  C   LIG    1       -4.781  -3.901   2.537  0.00  0.00    -0.060 C 
ENDBRANCH  14  16
ENDBRANCH  13  14
ENDBRANCH  11  13
ENDBRANCH   1  11
TORSDOF 7
ENDMDL
MODEL      573
REMARK  Name = ZINC000308605286
REMARK                            x       y       z     vdW  Elec       q    Type
REMARK                         _______ _______ _______ _____ _____    ______ ____
ROOT
ATOM      1  C   LIG    1        4.145  -5.166   3.480  0.00  0.00    +0.250 C 
ENDROOT
BRANCH   1   2
ATOM      2  N   LIG    1        5.427  -5.883   3.464  0.00  0.00    -0.510 N 
ATOM      3  H   LIG    1        6.184  -5.220   3.543  0.00  0.00    +0.430 HD
ATOM      4  H   LIG    1        5.516  -6.393   2.598  0.00  0.00    +0.430 HD
BRANCH   2   5
ATOM      5  C   LIG    1        5.477  -6.821   4.593  0.00  0.00    +0.300 C 
BRANCH   5   6
ATOM      6  C   LIG    1        6.812  -7.568   4.576  0.00  0.00    -0.190 C 
ATOM      7  C   LIG    1        7.807  -7.263   5.698  0.00  0.00    +0.060 C 
ATOM      8  C   LIG    1        7.383  -7.869   3.189  0.00  0.00    +0.090 C 
ATOM      9  C   LIG    1        7.060  -8.598   5.680  0.00  0.00    +0.080 C 
ENDBRANCH   5   6
ENDBRANCH   2   5
ENDBRANCH   1   2
BRANCH   1  10
ATOM     10  C   LIG    1        4.093  -4.188   2.304  0.00  0.00    +0.030 C 
BRANCH  10  11
ATOM     11  C   LIG    1        2.757  -3.441   2.321  0.00  0.00    +0.020 C 
BRANCH  11  12
ATOM     12  C   LIG    1        2.705  -2.464   1.145  0.00  0.00    +0.020 C 
BRANCH  12  13
ATOM     13  C   LIG    1        1.370  -1.717   1.161  0.00  0.00    +0.020 C 
BRANCH  13  14
ATOM     14  C   LIG    1        1.317  -0.740  -0.015  0.00  0.00    +0.040 C 
BRANCH  14  16
ATOM     15  C   LIG    1       -0.016   1.306   0.009  0.00  0.00    +0.010 C 
ATOM     16  C   LIG    1        0.002  -0.004   0.002  0.00  0.00    -0.060 C 
ENDBRANCH  14  16
ENDBRANCH  13  14
ENDBRANCH  12  13
ENDBRANCH  11  12
ENDBRANCH  10  11
ENDBRANCH   1  10
TORSDOF 9
ENDMDL
MODEL      574
REMARK  Name = ZINC000658346490
REMARK                            x       y       z     vdW  Elec       q    Type
REMARK                         _______ _______ _______ _____ _____    ______ ____
ROOT
ATOM      1  N   LIG    1       -2.762  -3.093  -0.445  0.00  0.00    -0.500 N 
ATOM      2  H   LIG    1       -2.699  -2.447   0.327  0.00  0.00    +0.430 HD
ATOM      3  H   LIG    1       -2.074  -3.822  -0.330  0.00  0.00    +0.420 HD
ENDROOT
BRANCH   1   4
ATOM      4  C   LIG    1       -4.105  -3.688  -0.478  0.00  0.00    +0.120 C 
ATOM      5  C   LIG    1       -4.133  -5.115  -1.051  0.00  0.00    +0.080 C 
ATOM      6  C   LIG    1       -3.890  -5.612   0.384  0.00  0.00    -0.100 C 
ATOM      7  C   LIG    1       -2.409  -5.732   0.748  0.00  0.00    +0.060 C 
ATOM      8  C   LIG    1       -4.694  -6.863   0.744  0.00  0.00    +0.070 C 
ATOM      9  C   LIG    1       -4.539  -4.303   0.863  0.00  0.00    +0.090 C 
ENDBRANCH   1   4
BRANCH   1  10
ATOM     10  C   LIG    1       -2.512  -2.378  -1.704  0.00  0.00    +0.170 C 
BRANCH  10  11
ATOM     11  C   LIG    1       -3.571  -1.290  -1.891  0.00  0.00    +0.050 C 
ATOM     12  C   LIG    1       -3.465  -0.274  -0.752  0.00  0.00    +0.030 C 
ENDBRANCH  10  11
BRANCH  10  13
ATOM     13  C   LIG    1       -2.581  -3.363  -2.872  0.00  0.00    +0.060 C 
BRANCH  13  14
ATOM     14  C   LIG    1       -1.443  -4.379  -2.751  0.00  0.00    +0.030 C 
BRANCH  14  16
ATOM     15  C   LIG    1       -0.466  -5.524  -4.673  0.00  0.00    +0.050 C 
ATOM     16  C   LIG    1       -1.510  -5.349  -3.902  0.00  0.00    -0.070 C 
ENDBRANCH  14  16
ENDBRANCH  13  14
ENDBRANCH  10  13
ENDBRANCH   1  10
TORSDOF 6
ENDMDL
MODEL      575
REMARK  Name = ZINC000658346492
REMARK                            x       y       z     vdW  Elec       q    Type
REMARK                         _______ _______ _______ _____ _____    ______ ____
ROOT
ATOM      1  N   LIG    1       -3.349  -1.929  -0.931  0.00  0.00    -0.500 N 
ATOM      2  H   LIG    1       -3.307  -1.459  -1.823  0.00  0.00    +0.430 HD
ATOM      3  H   LIG    1       -3.313  -1.247  -0.189  0.00  0.00    +0.420 HD
ENDROOT
BRANCH   1   4
ATOM      4  C   LIG    1       -4.603  -2.688  -0.838  0.00  0.00    +0.130 C 
ATOM      5  C   LIG    1       -5.121  -2.847   0.601  0.00  0.00    +0.090 C 
ATOM      6  C   LIG    1       -5.876  -1.524   0.392  0.00  0.00    -0.100 C 
ATOM      7  C   LIG    1       -5.059  -0.286   0.768  0.00  0.00    +0.060 C 
ATOM      8  C   LIG    1       -7.280  -1.516   1.000  0.00  0.00    +0.070 C 
ATOM      9  C   LIG    1       -5.857  -1.842  -1.113  0.00  0.00    +0.090 C 
ENDBRANCH   1   4
BRANCH   1  10
ATOM     10  C   LIG    1       -2.210  -2.849  -0.808  0.00  0.00    +0.160 C 
BRANCH  10  11
ATOM     11  C   LIG    1       -2.164  -3.770  -2.029  0.00  0.00    +0.040 C 
ATOM     12  C   LIG    1       -1.060  -4.812  -1.839  0.00  0.00    +0.060 C 
ENDBRANCH  10  11
BRANCH  10  13
ATOM     13  C   LIG    1       -0.911  -2.044  -0.728  0.00  0.00    +0.060 C 
BRANCH  13  14
ATOM     14  C   LIG    1       -0.904  -1.215   0.558  0.00  0.00    +0.050 C 
BRANCH  14  16
ATOM     15  C   LIG    1        0.332   0.878   0.789  0.00  0.00    +0.040 C 
ATOM     16  C   LIG    1        0.375  -0.422   0.637  0.00  0.00    -0.050 C 
ENDBRANCH  14  16
ENDBRANCH  13  14
ENDBRANCH  10  13
ENDBRANCH   1  10
TORSDOF 6
ENDMDL
MODEL      576
REMARK  Name = ZINC001181893751
REMARK                            x       y       z     vdW  Elec       q    Type
REMARK                         _______ _______ _______ _____ _____    ______ ____
ROOT
ATOM      1  N   LIG    1        2.997  -1.823   1.401  0.00  0.00    -0.510 N 
ATOM      2  H   LIG    1        3.707  -1.233   0.995  0.00  0.00    +0.430 HD
ATOM      3  H   LIG    1        2.905  -2.665   0.851  0.00  0.00    +0.430 HD
ENDROOT
BRANCH   1   4
ATOM      4  C   LIG    1        3.378  -2.175   2.775  0.00  0.00    +0.170 C 
ATOM      5  C   LIG    1        2.395  -3.217   3.346  0.00  0.00    +0.060 C 
ATOM      6  C   LIG    1        3.092  -4.577   3.093  0.00  0.00    +0.020 C 
ATOM      7  C   LIG    1        4.583  -4.251   3.360  0.00  0.00    +0.060 C 
ATOM      8  C   LIG    1        4.770  -2.831   2.784  0.00  0.00    -0.080 C 
ATOM      9  C   LIG    1        5.320  -2.912   1.359  0.00  0.00    +0.040 C 
BRANCH   8  10
ATOM     10  C   LIG    1        5.724  -2.028   3.670  0.00  0.00    +0.030 C 
ATOM     11  C   LIG    1        7.093  -2.711   3.697  0.00  0.00    +0.030 C 
ENDBRANCH   8  10
ENDBRANCH   1   4
BRANCH   1  12
ATOM     12  C   LIG    1        1.715  -1.106   1.417  0.00  0.00    +0.250 C 
BRANCH  12  13
ATOM     13  C   LIG    1        1.317  -0.740  -0.015  0.00  0.00    +0.070 C 
BRANCH  13  15
ATOM     14  C   LIG    1       -0.016   1.306   0.009  0.00  0.00    +0.050 C 
ATOM     15  C   LIG    1        0.002  -0.004   0.002  0.00  0.00    -0.150 C 
ATOM     16  C   LIG    1       -1.293  -0.775   0.010  0.00  0.00    +0.080 C 
ENDBRANCH  13  15
ENDBRANCH  12  13
ENDBRANCH   1  12
TORSDOF 5
ENDMDL
MODEL      577
REMARK  Name = ZINC001181893748
REMARK                            x       y       z     vdW  Elec       q    Type
REMARK                         _______ _______ _______ _____ _____    ______ ____
ROOT
ATOM      1  N   LIG    1        2.997  -1.823   1.401  0.00  0.00    -0.510 N 
ATOM      2  H   LIG    1        3.707  -1.233   0.995  0.00  0.00    +0.430 HD
ATOM      3  H   LIG    1        2.905  -2.665   0.851  0.00  0.00    +0.430 HD
ENDROOT
BRANCH   1   4
ATOM      4  C   LIG    1        3.378  -2.175   2.775  0.00  0.00    +0.170 C 
ATOM      5  C   LIG    1        3.695  -0.897   3.579  0.00  0.00    +0.050 C 
ATOM      6  C   LIG    1        4.882  -1.304   4.487  0.00  0.00    +0.050 C 
ATOM      7  C   LIG    1        5.719  -2.224   3.563  0.00  0.00    +0.040 C 
ATOM      8  C   LIG    1        4.664  -3.020   2.765  0.00  0.00    -0.080 C 
ATOM      9  C   LIG    1        5.143  -3.229   1.327  0.00  0.00    +0.040 C 
BRANCH   8  10
ATOM     10  C   LIG    1        4.410  -4.372   3.435  0.00  0.00    +0.030 C 
ATOM     11  C   LIG    1        5.705  -5.186   3.449  0.00  0.00    +0.030 C 
ENDBRANCH   8  10
ENDBRANCH   1   4
BRANCH   1  12
ATOM     12  C   LIG    1        1.715  -1.106   1.417  0.00  0.00    +0.250 C 
BRANCH  12  13
ATOM     13  C   LIG    1        1.317  -0.740  -0.015  0.00  0.00    +0.070 C 
BRANCH  13  15
ATOM     14  C   LIG    1       -0.016   1.306   0.009  0.00  0.00    +0.050 C 
ATOM     15  C   LIG    1        0.002  -0.004   0.002  0.00  0.00    -0.150 C 
ATOM     16  C   LIG    1       -1.293  -0.775   0.010  0.00  0.00    +0.080 C 
ENDBRANCH  13  15
ENDBRANCH  12  13
ENDBRANCH   1  12
TORSDOF 5
ENDMDL
MODEL      578
REMARK  Name = ZINC001181893749
REMARK                            x       y       z     vdW  Elec       q    Type
REMARK                         _______ _______ _______ _____ _____    ______ ____
ROOT
ATOM      1  N   LIG    1        2.997  -1.823   1.401  0.00  0.00    -0.510 N 
ATOM      2  H   LIG    1        3.707  -1.233   0.995  0.00  0.00    +0.430 HD
ATOM      3  H   LIG    1        2.905  -2.665   0.851  0.00  0.00    +0.430 HD
ENDROOT
BRANCH   1   4
ATOM      4  C   LIG    1        3.378  -2.175   2.775  0.00  0.00    +0.170 C 
ATOM      5  C   LIG    1        3.695  -0.897   3.579  0.00  0.00    +0.050 C 
ATOM      6  C   LIG    1        4.882  -1.304   4.487  0.00  0.00    +0.050 C 
ATOM      7  C   LIG    1        5.719  -2.224   3.563  0.00  0.00    +0.050 C 
ATOM      8  C   LIG    1        4.664  -3.020   2.765  0.00  0.00    -0.080 C 
ATOM      9  C   LIG    1        4.410  -4.372   3.435  0.00  0.00    +0.060 C 
BRANCH   8  10
ATOM     10  C   LIG    1        5.143  -3.229   1.327  0.00  0.00    +0.000 C 
ATOM     11  C   LIG    1        6.441  -4.039   1.334  0.00  0.00    +0.050 C 
ENDBRANCH   8  10
ENDBRANCH   1   4
BRANCH   1  12
ATOM     12  C   LIG    1        1.715  -1.106   1.417  0.00  0.00    +0.250 C 
BRANCH  12  13
ATOM     13  C   LIG    1        1.317  -0.740  -0.015  0.00  0.00    +0.070 C 
BRANCH  13  15
ATOM     14  C   LIG    1       -0.016   1.306   0.009  0.00  0.00    +0.050 C 
ATOM     15  C   LIG    1        0.002  -0.004   0.002  0.00  0.00    -0.150 C 
ATOM     16  C   LIG    1       -1.293  -0.775   0.010  0.00  0.00    +0.080 C 
ENDBRANCH  13  15
ENDBRANCH  12  13
ENDBRANCH   1  12
TORSDOF 5
ENDMDL
MODEL      579
REMARK  Name = ZINC001181893750
REMARK                            x       y       z     vdW  Elec       q    Type
REMARK                         _______ _______ _______ _____ _____    ______ ____
ROOT
ATOM      1  N   LIG    1        2.997  -1.823   1.401  0.00  0.00    -0.510 N 
ATOM      2  H   LIG    1        3.707  -1.233   0.995  0.00  0.00    +0.430 HD
ATOM      3  H   LIG    1        2.905  -2.665   0.851  0.00  0.00    +0.430 HD
ENDROOT
BRANCH   1   4
ATOM      4  C   LIG    1        3.378  -2.175   2.775  0.00  0.00    +0.170 C 
ATOM      5  C   LIG    1        2.395  -3.217   3.346  0.00  0.00    +0.050 C 
ATOM      6  C   LIG    1        3.286  -4.152   4.201  0.00  0.00    +0.050 C 
ATOM      7  C   LIG    1        4.583  -4.251   3.360  0.00  0.00    +0.050 C 
ATOM      8  C   LIG    1        4.770  -2.831   2.784  0.00  0.00    -0.080 C 
ATOM      9  C   LIG    1        5.724  -2.028   3.670  0.00  0.00    +0.060 C 
BRANCH   8  10
ATOM     10  C   LIG    1        5.320  -2.912   1.359  0.00  0.00    +0.000 C 
ATOM     11  C   LIG    1        6.688  -3.599   1.378  0.00  0.00    +0.050 C 
ENDBRANCH   8  10
ENDBRANCH   1   4
BRANCH   1  12
ATOM     12  C   LIG    1        1.715  -1.106   1.417  0.00  0.00    +0.250 C 
BRANCH  12  13
ATOM     13  C   LIG    1        1.317  -0.740  -0.015  0.00  0.00    +0.070 C 
BRANCH  13  15
ATOM     14  C   LIG    1       -0.016   1.306   0.009  0.00  0.00    +0.050 C 
ATOM     15  C   LIG    1        0.002  -0.004   0.002  0.00  0.00    -0.150 C 
ATOM     16  C   LIG    1       -1.293  -0.775   0.010  0.00  0.00    +0.080 C 
ENDBRANCH  13  15
ENDBRANCH  12  13
ENDBRANCH   1  12
TORSDOF 5
ENDMDL
MODEL      580
REMARK  Name = ZINC000308615555
REMARK                            x       y       z     vdW  Elec       q    Type
REMARK                         _______ _______ _______ _____ _____    ______ ____
ROOT
ATOM      1  N   LIG    1       -2.536  -3.456   0.037  0.00  0.00    -0.510 N 
ATOM      2  H   LIG    1       -2.347  -2.922   0.872  0.00  0.00    +0.420 HD
ATOM      3  H   LIG    1       -1.756  -4.066  -0.156  0.00  0.00    +0.420 HD
ENDROOT
BRANCH   1   4
ATOM      4  C   LIG    1       -3.750  -4.260   0.234  0.00  0.00    +0.200 C 
ATOM      5  C   LIG    1       -4.904  -3.346   0.653  0.00  0.00    +0.090 C 
BRANCH   4   6
ATOM      6  C   LIG    1       -3.500  -5.301   1.327  0.00  0.00    -0.180 C 
ATOM      7  C   LIG    1       -4.248  -5.129   2.650  0.00  0.00    +0.050 C 
ATOM      8  C   LIG    1       -2.080  -5.868   1.386  0.00  0.00    +0.080 C 
ATOM      9  C   LIG    1       -4.652  -6.242   1.682  0.00  0.00    +0.080 C 
ENDBRANCH   4   6
ENDBRANCH   1   4
BRANCH   1  10
ATOM     10  C   LIG    1       -2.733  -2.541  -1.095  0.00  0.00    +0.160 C 
BRANCH  10  11
ATOM     11  C   LIG    1       -2.869  -3.349  -2.387  0.00  0.00    +0.040 C 
ATOM     12  C   LIG    1       -3.179  -2.405  -3.550  0.00  0.00    +0.060 C 
ENDBRANCH  10  11
BRANCH  10  13
ATOM     13  C   LIG    1       -1.531  -1.601  -1.207  0.00  0.00    +0.070 C 
BRANCH  13  14
ATOM     14  C   LIG    1       -1.468  -0.705   0.032  0.00  0.00    +0.040 C 
BRANCH  14  16
ATOM     15  C   LIG    1       -0.454   1.516   0.022  0.00  0.00    +0.050 C 
ATOM     16  C   LIG    1       -0.284   0.221  -0.078  0.00  0.00    -0.070 C 
ENDBRANCH  14  16
ENDBRANCH  13  14
ENDBRANCH  10  13
ENDBRANCH   1  10
TORSDOF 7
ENDMDL
MODEL      581
REMARK  Name = ZINC000308615553
REMARK                            x       y       z     vdW  Elec       q    Type
REMARK                         _______ _______ _______ _____ _____    ______ ____
ROOT
ATOM      1  N   LIG    1       -2.836  -3.413   0.024  0.00  0.00    -0.500 N 
ATOM      2  H   LIG    1       -2.600  -2.885   0.851  0.00  0.00    +0.430 HD
ATOM      3  H   LIG    1       -2.224  -4.211  -0.052  0.00  0.00    +0.420 HD
ENDROOT
BRANCH   1   4
ATOM      4  C   LIG    1       -4.229  -3.871   0.116  0.00  0.00    +0.200 C 
ATOM      5  C   LIG    1       -4.534  -4.812  -1.052  0.00  0.00    +0.090 C 
BRANCH   4   6
ATOM      6  C   LIG    1       -4.435  -4.614   1.437  0.00  0.00    -0.180 C 
ATOM      7  C   LIG    1       -5.324  -3.949   2.490  0.00  0.00    +0.050 C 
ATOM      8  C   LIG    1       -3.235  -5.422   1.934  0.00  0.00    +0.080 C 
ATOM      9  C   LIG    1       -5.830  -5.172   1.723  0.00  0.00    +0.080 C 
ENDBRANCH   4   6
ENDBRANCH   1   4
BRANCH   1  10
ATOM     10  C   LIG    1       -2.678  -2.560  -1.162  0.00  0.00    +0.160 C 
BRANCH  10  11
ATOM     11  C   LIG    1       -1.249  -2.687  -1.695  0.00  0.00    +0.050 C 
ATOM     12  C   LIG    1       -1.016  -4.114  -2.195  0.00  0.00    +0.040 C 
ENDBRANCH  10  11
BRANCH  10  13
ATOM     13  C   LIG    1       -2.955  -1.104  -0.784  0.00  0.00    +0.070 C 
BRANCH  13  14
ATOM     14  C   LIG    1       -4.409  -0.962  -0.332  0.00  0.00    +0.040 C 
BRANCH  14  16
ATOM     15  C   LIG    1       -5.729   1.059  -0.699  0.00  0.00    +0.050 C 
ATOM     16  C   LIG    1       -4.719   0.492  -0.087  0.00  0.00    -0.060 C 
ENDBRANCH  14  16
ENDBRANCH  13  14
ENDBRANCH  10  13
ENDBRANCH   1  10
TORSDOF 7
ENDMDL
MODEL      582
REMARK  Name = ZINC000308615554
REMARK                            x       y       z     vdW  Elec       q    Type
REMARK                         _______ _______ _______ _____ _____    ______ ____
ROOT
ATOM      1  N   LIG    1       -3.878  -1.540  -1.186  0.00  0.00    -0.510 N 
ATOM      2  H   LIG    1       -4.028  -1.095  -2.079  0.00  0.00    +0.430 HD
ATOM      3  H   LIG    1       -3.625  -0.844  -0.501  0.00  0.00    +0.420 HD
ENDROOT
BRANCH   1   4
ATOM      4  C   LIG    1       -5.111  -2.218  -0.763  0.00  0.00    +0.200 C 
ATOM      5  C   LIG    1       -4.931  -2.766   0.654  0.00  0.00    +0.090 C 
BRANCH   4   6
ATOM      6  C   LIG    1       -6.272  -1.221  -0.780  0.00  0.00    -0.180 C 
ATOM      7  C   LIG    1       -7.360  -1.423  -1.837  0.00  0.00    +0.060 C 
ATOM      8  C   LIG    1       -5.913   0.217  -0.401  0.00  0.00    +0.080 C 
ATOM      9  C   LIG    1       -7.652  -1.738  -0.368  0.00  0.00    +0.080 C 
ENDBRANCH   4   6
ENDBRANCH   1   4
BRANCH   1  10
ATOM     10  C   LIG    1       -2.795  -2.525  -1.307  0.00  0.00    +0.160 C 
BRANCH  10  11
ATOM     11  C   LIG    1       -3.118  -3.503  -2.438  0.00  0.00    +0.040 C 
ATOM     12  C   LIG    1       -2.062  -4.610  -2.473  0.00  0.00    +0.060 C 
ENDBRANCH  10  11
BRANCH  10  13
ATOM     13  C   LIG    1       -1.481  -1.803  -1.616  0.00  0.00    +0.070 C 
BRANCH  13  14
ATOM     14  C   LIG    1       -1.094  -0.918  -0.430  0.00  0.00    +0.050 C 
BRANCH  14  16
ATOM     15  C   LIG    1        0.263   1.099  -0.657  0.00  0.00    +0.040 C 
ATOM     16  C   LIG    1        0.200  -0.208  -0.734  0.00  0.00    -0.050 C 
ENDBRANCH  14  16
ENDBRANCH  13  14
ENDBRANCH  10  13
ENDBRANCH   1  10
TORSDOF 7
ENDMDL
MODEL      583
REMARK  Name = ZINC000308615552
REMARK                            x       y       z     vdW  Elec       q    Type
REMARK                         _______ _______ _______ _____ _____    ______ ____
ROOT
ATOM      1  N   LIG    1       -3.727  -1.613  -1.399  0.00  0.00    -0.510 N 
ATOM      2  H   LIG    1       -3.670  -1.186  -2.312  0.00  0.00    +0.420 HD
ATOM      3  H   LIG    1       -3.679  -0.897  -0.689  0.00  0.00    +0.420 HD
ENDROOT
BRANCH   1   4
ATOM      4  C   LIG    1       -4.998  -2.338  -1.276  0.00  0.00    +0.210 C 
ATOM      5  C   LIG    1       -5.127  -3.340  -2.426  0.00  0.00    +0.090 C 
BRANCH   4   6
ATOM      6  C   LIG    1       -6.161  -1.345  -1.333  0.00  0.00    -0.180 C 
ATOM      7  C   LIG    1       -7.067  -1.387  -2.564  0.00  0.00    +0.050 C 
ATOM      8  C   LIG    1       -5.892   0.022  -0.699  0.00  0.00    +0.080 C 
ATOM      9  C   LIG    1       -7.578  -1.909  -1.220  0.00  0.00    +0.080 C 
ENDBRANCH   4   6
ENDBRANCH   1   4
BRANCH   1  10
ATOM     10  C   LIG    1       -2.610  -2.550  -1.226  0.00  0.00    +0.160 C 
BRANCH  10  11
ATOM     11  C   LIG    1       -1.448  -2.131  -2.130  0.00  0.00    +0.050 C 
ATOM     12  C   LIG    1       -1.860  -2.287  -3.595  0.00  0.00    +0.040 C 
ENDBRANCH  10  11
BRANCH  10  13
ATOM     13  C   LIG    1       -2.151  -2.534   0.234  0.00  0.00    +0.070 C 
BRANCH  13  14
ATOM     14  C   LIG    1       -3.253  -3.117   1.121  0.00  0.00    +0.040 C 
BRANCH  14  16
ATOM     15  C   LIG    1       -3.433  -2.643   3.509  0.00  0.00    +0.040 C 
ATOM     16  C   LIG    1       -2.758  -3.211   2.541  0.00  0.00    -0.050 C 
ENDBRANCH  14  16
ENDBRANCH  13  14
ENDBRANCH  10  13
ENDBRANCH   1  10
TORSDOF 7
ENDMDL
MODEL      584
REMARK  Name = ZINC001183571030
REMARK                            x       y       z     vdW  Elec       q    Type
REMARK                         _______ _______ _______ _____ _____    ______ ____
ROOT
ATOM      1  N   LIG    1        2.783  -3.301  -0.060  0.00  0.00    -0.510 N 
ATOM      2  H   LIG    1        2.631  -2.729  -0.877  0.00  0.00    +0.430 HD
ATOM      3  H   LIG    1        2.075  -4.019  -0.017  0.00  0.00    +0.430 HD
ENDROOT
BRANCH   1   4
ATOM      4  C   LIG    1        2.705  -2.464   1.145  0.00  0.00    +0.170 C 
ATOM      5  C   LIG    1        2.810  -3.349   2.388  0.00  0.00    +0.090 C 
BRANCH   4   6
ATOM      6  C   LIG    1        1.370  -1.717   1.161  0.00  0.00    +0.060 C 
BRANCH   6   7
ATOM      7  C   LIG    1        1.317  -0.740  -0.015  0.00  0.00    +0.040 C 
BRANCH   7   9
ATOM      8  C   LIG    1       -0.016   1.306   0.009  0.00  0.00    +0.050 C 
ATOM      9  C   LIG    1        0.002  -0.004   0.002  0.00  0.00    -0.070 C 
ENDBRANCH   7   9
ENDBRANCH   6   7
ENDBRANCH   4   6
ENDBRANCH   1   4
BRANCH   1  10
ATOM     10  C   LIG    1        4.110  -3.925  -0.138  0.00  0.00    +0.240 C 
BRANCH  10  11
ATOM     11  C   LIG    1        4.191  -4.796  -1.393  0.00  0.00    +0.030 C 
BRANCH  11  12
ATOM     12  C   LIG    1        5.574  -5.446  -1.474  0.00  0.00    -0.010 C 
ATOM     13  C   LIG    1        6.637  -4.362  -1.665  0.00  0.00    +0.020 C 
BRANCH  12  14
ATOM     14  C   LIG    1        5.614  -6.414  -2.658  0.00  0.00    +0.020 C 
BRANCH  14  15
ATOM     15  C   LIG    1        6.952  -7.156  -2.666  0.00  0.00    +0.000 C 
ATOM     16  C   LIG    1        6.992  -8.123  -3.850  0.00  0.00    +0.010 C 
ENDBRANCH  14  15
ENDBRANCH  12  14
ENDBRANCH  11  12
ENDBRANCH  10  11
ENDBRANCH   1  10
TORSDOF 9
ENDMDL
MODEL      585
REMARK  Name = ZINC001183571033
REMARK                            x       y       z     vdW  Elec       q    Type
REMARK                         _______ _______ _______ _____ _____    ______ ____
ROOT
ATOM      1  N   LIG    1        3.800  -1.514   1.380  0.00  0.00    -0.510 N 
ATOM      2  H   LIG    1        3.720  -1.132   2.310  0.00  0.00    +0.430 HD
ATOM      3  H   LIG    1        3.749  -0.767   0.704  0.00  0.00    +0.430 HD
ENDROOT
BRANCH   1   4
ATOM      4  C   LIG    1        2.705  -2.464   1.145  0.00  0.00    +0.170 C 
ATOM      5  C   LIG    1        2.708  -3.528   2.244  0.00  0.00    +0.090 C 
BRANCH   4   6
ATOM      6  C   LIG    1        1.370  -1.717   1.161  0.00  0.00    +0.060 C 
BRANCH   6   7
ATOM      7  C   LIG    1        1.317  -0.740  -0.015  0.00  0.00    +0.050 C 
BRANCH   7   9
ATOM      8  C   LIG    1       -0.016   1.306   0.009  0.00  0.00    +0.040 C 
ATOM      9  C   LIG    1        0.002  -0.004   0.002  0.00  0.00    -0.060 C 
ENDBRANCH   7   9
ENDBRANCH   6   7
ENDBRANCH   4   6
ENDBRANCH   1   4
BRANCH   1  10
ATOM     10  C   LIG    1        5.088  -2.208   1.245  0.00  0.00    +0.240 C 
BRANCH  10  11
ATOM     11  C   LIG    1        6.229  -1.219   1.490  0.00  0.00    +0.030 C 
BRANCH  11  12
ATOM     12  C   LIG    1        7.570  -1.942   1.350  0.00  0.00    -0.010 C 
ATOM     13  C   LIG    1        7.746  -2.413  -0.095  0.00  0.00    +0.020 C 
BRANCH  12  14
ATOM     14  C   LIG    1        8.706  -0.985   1.716  0.00  0.00    +0.020 C 
BRANCH  14  15
ATOM     15  C   LIG    1       10.036  -1.741   1.697  0.00  0.00    +0.000 C 
ATOM     16  C   LIG    1       11.172  -0.784   2.063  0.00  0.00    +0.010 C 
ENDBRANCH  14  15
ENDBRANCH  12  14
ENDBRANCH  11  12
ENDBRANCH  10  11
ENDBRANCH   1  10
TORSDOF 9
ENDMDL
MODEL      586
REMARK  Name = ZINC001183571031
REMARK                            x       y       z     vdW  Elec       q    Type
REMARK                         _______ _______ _______ _____ _____    ______ ____
ROOT
ATOM      1  N   LIG    1        3.800  -1.514   1.380  0.00  0.00    -0.510 N 
ATOM      2  H   LIG    1        3.720  -1.132   2.310  0.00  0.00    +0.430 HD
ATOM      3  H   LIG    1        3.749  -0.767   0.704  0.00  0.00    +0.430 HD
ENDROOT
BRANCH   1   4
ATOM      4  C   LIG    1        2.705  -2.464   1.145  0.00  0.00    +0.170 C 
ATOM      5  C   LIG    1        2.708  -3.528   2.244  0.00  0.00    +0.090 C 
BRANCH   4   6
ATOM      6  C   LIG    1        1.370  -1.717   1.161  0.00  0.00    +0.060 C 
BRANCH   6   7
ATOM      7  C   LIG    1        1.317  -0.740  -0.015  0.00  0.00    +0.050 C 
BRANCH   7   9
ATOM      8  C   LIG    1       -0.016   1.306   0.009  0.00  0.00    +0.040 C 
ATOM      9  C   LIG    1        0.002  -0.004   0.002  0.00  0.00    -0.060 C 
ENDBRANCH   7   9
ENDBRANCH   6   7
ENDBRANCH   4   6
ENDBRANCH   1   4
BRANCH   1  10
ATOM     10  C   LIG    1        5.088  -2.208   1.245  0.00  0.00    +0.250 C 
BRANCH  10  11
ATOM     11  C   LIG    1        6.229  -1.219   1.490  0.00  0.00    +0.030 C 
BRANCH  11  12
ATOM     12  C   LIG    1        7.570  -1.942   1.350  0.00  0.00    -0.010 C 
ATOM     13  C   LIG    1        7.701  -2.992   2.455  0.00  0.00    +0.020 C 
BRANCH  12  14
ATOM     14  C   LIG    1        8.710  -0.929   1.471  0.00  0.00    +0.020 C 
BRANCH  14  15
ATOM     15  C   LIG    1       10.045  -1.630   1.207  0.00  0.00    +0.000 C 
ATOM     16  C   LIG    1       11.185  -0.617   1.329  0.00  0.00    +0.010 C 
ENDBRANCH  14  15
ENDBRANCH  12  14
ENDBRANCH  11  12
ENDBRANCH  10  11
ENDBRANCH   1  10
TORSDOF 9
ENDMDL
MODEL      587
REMARK  Name = ZINC001183571032
REMARK                            x       y       z     vdW  Elec       q    Type
REMARK                         _______ _______ _______ _____ _____    ______ ____
ROOT
ATOM      1  N   LIG    1        2.783  -3.301  -0.060  0.00  0.00    -0.510 N 
ATOM      2  H   LIG    1        2.631  -2.729  -0.877  0.00  0.00    +0.430 HD
ATOM      3  H   LIG    1        2.075  -4.019  -0.017  0.00  0.00    +0.430 HD
ENDROOT
BRANCH   1   4
ATOM      4  C   LIG    1        2.705  -2.464   1.145  0.00  0.00    +0.170 C 
ATOM      5  C   LIG    1        2.810  -3.349   2.388  0.00  0.00    +0.090 C 
BRANCH   4   6
ATOM      6  C   LIG    1        1.370  -1.717   1.161  0.00  0.00    +0.060 C 
BRANCH   6   7
ATOM      7  C   LIG    1        1.317  -0.740  -0.015  0.00  0.00    +0.040 C 
BRANCH   7   9
ATOM      8  C   LIG    1       -0.016   1.306   0.009  0.00  0.00    +0.050 C 
ATOM      9  C   LIG    1        0.002  -0.004   0.002  0.00  0.00    -0.070 C 
ENDBRANCH   7   9
ENDBRANCH   6   7
ENDBRANCH   4   6
ENDBRANCH   1   4
BRANCH   1  10
ATOM     10  C   LIG    1        4.110  -3.925  -0.138  0.00  0.00    +0.250 C 
BRANCH  10  11
ATOM     11  C   LIG    1        4.191  -4.796  -1.393  0.00  0.00    +0.030 C 
BRANCH  11  12
ATOM     12  C   LIG    1        5.574  -5.446  -1.474  0.00  0.00    -0.010 C 
ATOM     13  C   LIG    1        5.755  -6.410  -0.299  0.00  0.00    +0.020 C 
BRANCH  12  14
ATOM     14  C   LIG    1        5.699  -6.217  -2.790  0.00  0.00    +0.020 C 
BRANCH  14  15
ATOM     15  C   LIG    1        7.122  -6.762  -2.928  0.00  0.00    +0.000 C 
ATOM     16  C   LIG    1        7.247  -7.533  -4.244  0.00  0.00    +0.010 C 
ENDBRANCH  14  15
ENDBRANCH  12  14
ENDBRANCH  11  12
ENDBRANCH  10  11
ENDBRANCH   1  10
TORSDOF 9
ENDMDL
MODEL      588
REMARK  Name = ZINC000379369604
REMARK                            x       y       z     vdW  Elec       q    Type
REMARK                         _______ _______ _______ _____ _____    ______ ____
ROOT
ATOM      1  N   LIG    1        2.926  -3.126   2.058  0.00  0.00    -0.510 N 
ATOM      2  H   LIG    1        2.087  -3.686   2.074  0.00  0.00    +0.430 HD
ATOM      3  H   LIG    1        2.955  -2.539   2.878  0.00  0.00    +0.430 HD
ENDROOT
BRANCH   1   4
ATOM      4  C   LIG    1        2.931  -2.285   0.853  0.00  0.00    +0.250 C 
BRANCH   4   5
ATOM      5  C   LIG    1        1.774  -1.287   0.924  0.00  0.00    +0.040 C 
BRANCH   5   6
ATOM      6  C   LIG    1        1.779  -0.411  -0.331  0.00  0.00    +0.070 C 
BRANCH   6   8
ATOM      7  C   LIG    1        0.875   1.856  -0.379  0.00  0.00    +0.030 C 
ATOM      8  C   LIG    1        0.640   0.573  -0.262  0.00  0.00    -0.070 C 
ENDBRANCH   6   8
ENDBRANCH   5   6
ENDBRANCH   4   5
ENDBRANCH   1   4
BRANCH   1   9
ATOM      9  C   LIG    1        4.102  -4.007   2.045  0.00  0.00    +0.170 C 
BRANCH   9  10
ATOM     10  C   LIG    1        3.993  -4.987   0.875  0.00  0.00    +0.030 C 
ATOM     11  C   LIG    1        5.272  -5.822   0.788  0.00  0.00    +0.060 C 
ENDBRANCH   9  10
BRANCH   9  12
ATOM     12  C   LIG    1        4.169  -4.787   3.360  0.00  0.00    +0.060 C 
BRANCH  12  13
ATOM     13  C   LIG    1        4.404  -3.815   4.518  0.00  0.00    +0.010 C 
BRANCH  13  14
ATOM     14  C   LIG    1        4.471  -4.596   5.832  0.00  0.00    +0.010 C 
ATOM     15  C   LIG    1        4.705  -3.624   6.991  0.00  0.00    +0.010 C 
ENDBRANCH  13  14
ENDBRANCH  12  13
ENDBRANCH   9  12
ENDBRANCH   1   9
TORSDOF 9
ENDMDL
MODEL      589
REMARK  Name = ZINC000379369606
REMARK                            x       y       z     vdW  Elec       q    Type
REMARK                         _______ _______ _______ _____ _____    ______ ____
ROOT
ATOM      1  N   LIG    1        2.749  -3.428   2.374  0.00  0.00    -0.510 N 
ATOM      2  H   LIG    1        1.951  -4.035   2.267  0.00  0.00    +0.430 HD
ATOM      3  H   LIG    1        2.743  -3.024   3.298  0.00  0.00    +0.430 HD
ENDROOT
BRANCH   1   4
ATOM      4  C   LIG    1        2.687  -2.355   1.371  0.00  0.00    +0.250 C 
BRANCH   4   5
ATOM      5  C   LIG    1        1.343  -1.632   1.482  0.00  0.00    +0.040 C 
BRANCH   5   6
ATOM      6  C   LIG    1        1.277  -0.516   0.438  0.00  0.00    +0.070 C 
BRANCH   6   8
ATOM      7  C   LIG    1       -0.080   1.495   0.718  0.00  0.00    +0.030 C 
ATOM      8  C   LIG    1       -0.046   0.197   0.546  0.00  0.00    -0.070 C 
ENDBRANCH   6   8
ENDBRANCH   5   6
ENDBRANCH   4   5
ENDBRANCH   1   4
BRANCH   1   9
ATOM      9  C   LIG    1        3.983  -4.202   2.185  0.00  0.00    +0.170 C 
BRANCH   9  10
ATOM     10  C   LIG    1        5.193  -3.316   2.490  0.00  0.00    +0.030 C 
ATOM     11  C   LIG    1        6.479  -4.078   2.162  0.00  0.00    +0.060 C 
ENDBRANCH   9  10
BRANCH   9  12
ATOM     12  C   LIG    1        3.980  -5.404   3.132  0.00  0.00    +0.060 C 
BRANCH  12  13
ATOM     13  C   LIG    1        2.844  -6.354   2.747  0.00  0.00    +0.010 C 
BRANCH  13  14
ATOM     14  C   LIG    1        2.841  -7.556   3.694  0.00  0.00    +0.010 C 
ATOM     15  C   LIG    1        1.704  -8.505   3.309  0.00  0.00    +0.010 C 
ENDBRANCH  13  14
ENDBRANCH  12  13
ENDBRANCH   9  12
ENDBRANCH   1   9
TORSDOF 9
ENDMDL
MODEL      590
REMARK  Name = ZINC001183674329
REMARK                            x       y       z     vdW  Elec       q    Type
REMARK                         _______ _______ _______ _____ _____    ______ ____
ROOT
ATOM      1  C   LIG    1       -2.721  -3.333   2.509  0.00  0.00    +0.250 C 
ENDROOT
BRANCH   1   2
ATOM      2  N   LIG    1       -3.983  -4.085   2.517  0.00  0.00    -0.510 N 
ATOM      3  H   LIG    1       -4.037  -4.661   1.690  0.00  0.00    +0.430 HD
ATOM      4  H   LIG    1       -4.759  -3.439   2.528  0.00  0.00    +0.430 HD
BRANCH   2   5
ATOM      5  C   LIG    1       -4.038  -4.937   3.712  0.00  0.00    +0.250 C 
BRANCH   5   6
ATOM      6  C   LIG    1       -5.353  -5.720   3.721  0.00  0.00    +0.030 C 
BRANCH   6   7
ATOM      7  C   LIG    1       -5.410  -6.607   4.966  0.00  0.00    -0.010 C 
ATOM      8  C   LIG    1       -4.309  -7.666   4.888  0.00  0.00    +0.020 C 
ATOM      9  C   LIG    1       -6.775  -7.295   5.040  0.00  0.00    +0.040 C 
ENDBRANCH   6   7
ENDBRANCH   5   6
ENDBRANCH   2   5
ENDBRANCH   1   2
BRANCH   1  10
ATOM     10  C   LIG    1       -2.664  -2.446   1.264  0.00  0.00    +0.020 C 
BRANCH  10  11
ATOM     11  C   LIG    1       -1.350  -1.663   1.255  0.00  0.00    +0.060 C 
BRANCH  11  12
ATOM     12  C   LIG    1       -1.293  -0.775   0.010  0.00  0.00    -0.030 C 
ATOM     13  C   LIG    1       -1.374  -1.649  -1.243  0.00  0.00    +0.040 C 
ATOM     14  C   LIG    1       -2.469   0.203   0.027  0.00  0.00    +0.040 C 
BRANCH  12  16
ATOM     15  C   LIG    1       -0.016   1.306   0.009  0.00  0.00    +0.020 C 
ATOM     16  C   LIG    1        0.002  -0.004   0.002  0.00  0.00    -0.050 C 
ENDBRANCH  12  16
ENDBRANCH  11  12
ENDBRANCH  10  11
ENDBRANCH   1  10
TORSDOF 8
ENDMDL
MODEL      591
REMARK  Name = ZINC000379666651
REMARK                            x       y       z     vdW  Elec       q    Type
REMARK                         _______ _______ _______ _____ _____    ______ ____
ROOT
ATOM      1  N   LIG    1        2.625  -3.324   0.004  0.00  0.00    -0.510 N 
ATOM      2  H   LIG    1        2.566  -2.743  -0.819  0.00  0.00    +0.420 HD
ATOM      3  H   LIG    1        1.791  -3.887   0.079  0.00  0.00    +0.420 HD
ENDROOT
BRANCH   1   4
ATOM      4  C   LIG    1        2.749  -2.473   1.195  0.00  0.00    +0.160 C 
BRANCH   4   5
ATOM      5  C   LIG    1        2.679  -3.342   2.453  0.00  0.00    +0.030 C 
ATOM      6  C   LIG    1        2.888  -2.467   3.690  0.00  0.00    +0.060 C 
ENDBRANCH   4   5
BRANCH   4   7
ATOM      7  C   LIG    1        1.608  -1.454   1.216  0.00  0.00    +0.070 C 
BRANCH   7   8
ATOM      8  C   LIG    1        1.751  -0.505   0.024  0.00  0.00    +0.040 C 
BRANCH   8  10
ATOM      9  C   LIG    1        0.893   1.781   0.029  0.00  0.00    +0.050 C 
ATOM     10  C   LIG    1        0.627   0.499   0.044  0.00  0.00    -0.070 C 
ENDBRANCH   8  10
ENDBRANCH   7   8
ENDBRANCH   4   7
ENDBRANCH   1   4
BRANCH   1  11
ATOM     11  C   LIG    1        3.800  -4.200  -0.097  0.00  0.00    +0.260 C 
BRANCH  11  12
ATOM     12  C   LIG    1        3.631  -5.143  -1.289  0.00  0.00    -0.090 C 
ATOM     13  C   LIG    1        3.495  -4.323  -2.574  0.00  0.00    +0.040 C 
ATOM     14  C   LIG    1        2.375  -5.995  -1.093  0.00  0.00    +0.040 C 
BRANCH  12  15
ATOM     15  C   LIG    1        4.855  -6.056  -1.395  0.00  0.00    +0.030 C 
ATOM     16  C   LIG    1        4.686  -6.999  -2.587  0.00  0.00    +0.030 C 
ENDBRANCH  12  15
ENDBRANCH  11  12
ENDBRANCH   1  11
TORSDOF 8
ENDMDL
MODEL      592
REMARK  Name = ZINC000379666652
REMARK                            x       y       z     vdW  Elec       q    Type
REMARK                         _______ _______ _______ _____ _____    ______ ____
ROOT
ATOM      1  N   LIG    1        3.949  -1.572   1.236  0.00  0.00    -0.510 N 
ATOM      2  H   LIG    1        4.101  -1.235   2.175  0.00  0.00    +0.420 HD
ATOM      3  H   LIG    1        3.944  -0.793   0.596  0.00  0.00    +0.420 HD
ENDROOT
BRANCH   1   4
ATOM      4  C   LIG    1        2.659  -2.271   1.169  0.00  0.00    +0.160 C 
BRANCH   4   5
ATOM      5  C   LIG    1        2.615  -3.365   2.238  0.00  0.00    +0.030 C 
ATOM      6  C   LIG    1        1.334  -4.186   2.074  0.00  0.00    +0.060 C 
ENDBRANCH   4   5
BRANCH   4   7
ATOM      7  C   LIG    1        1.525  -1.272   1.414  0.00  0.00    +0.060 C 
BRANCH   7   8
ATOM      8  C   LIG    1        1.492  -0.250   0.277  0.00  0.00    +0.050 C 
BRANCH   8  10
ATOM      9  C   LIG    1        0.629   2.018   0.546  0.00  0.00    +0.040 C 
ATOM     10  C   LIG    1        0.376   0.734   0.518  0.00  0.00    -0.050 C 
ENDBRANCH   8  10
ENDBRANCH   7   8
ENDBRANCH   4   7
ENDBRANCH   1   4
BRANCH   1  11
ATOM     11  C   LIG    1        5.028  -2.500   0.869  0.00  0.00    +0.250 C 
BRANCH  11  12
ATOM     12  C   LIG    1        6.357  -1.745   0.826  0.00  0.00    -0.090 C 
ATOM     13  C   LIG    1        6.648  -1.145   2.203  0.00  0.00    +0.040 C 
ATOM     14  C   LIG    1        6.274  -0.624  -0.212  0.00  0.00    +0.040 C 
BRANCH  12  15
ATOM     15  C   LIG    1        7.481  -2.711   0.443  0.00  0.00    +0.030 C 
ATOM     16  C   LIG    1        8.810  -1.956   0.400  0.00  0.00    +0.030 C 
ENDBRANCH  12  15
ENDBRANCH  11  12
ENDBRANCH   1  11
TORSDOF 8
ENDMDL
MODEL      593
REMARK  Name = ZINC001190324907
REMARK                            x       y       z     vdW  Elec       q    Type
REMARK                         _______ _______ _______ _____ _____    ______ ____
ROOT
ATOM      1  N   LIG    1        2.910  -1.859   1.223  0.00  0.00    -0.390 N 
ATOM      2  H   LIG    1        3.197  -2.613   0.616  0.00  0.00    +0.420 HD
ENDROOT
BRANCH   1   3
ATOM      3  C   LIG    1        3.580  -0.618   0.812  0.00  0.00    +0.240 C 
ATOM      4  C   LIG    1        5.093  -0.843   0.772  0.00  0.00    +0.080 C 
ENDBRANCH   1   3
BRANCH   1   5
ATOM      5  C   LIG    1        1.455  -1.684   1.132  0.00  0.00    +0.250 C 
BRANCH   5   6
ATOM      6  C   LIG    1        1.056  -1.474  -0.330  0.00  0.00    +0.070 C 
BRANCH   6   8
ATOM      7  C   LIG    1       -0.952  -0.089  -0.436  0.00  0.00    +0.050 C 
ATOM      8  C   LIG    1       -0.437  -1.294  -0.423  0.00  0.00    -0.150 C 
ATOM      9  C   LIG    1       -1.338  -2.499  -0.501  0.00  0.00    +0.080 C 
ENDBRANCH   6   8
ENDBRANCH   5   6
ENDBRANCH   1   5
BRANCH   1  10
ATOM     10  C   LIG    1        3.280  -2.180   2.608  0.00  0.00    +0.240 C 
BRANCH  10  11
ATOM     11  C   LIG    1        2.694  -3.540   2.991  0.00  0.00    -0.020 C 
BRANCH  11  12
ATOM     12  C   LIG    1        2.961  -3.812   4.472  0.00  0.00    +0.040 C 
ATOM     13  C   LIG    1        2.203  -2.791   5.323  0.00  0.00    +0.020 C 
ENDBRANCH  11  12
BRANCH  11  14
ATOM     14  C   LIG    1        3.350  -4.634   2.145  0.00  0.00    +0.000 C 
ATOM     15  C   LIG    1        2.678  -5.977   2.438  0.00  0.00    +0.040 C 
ENDBRANCH  11  14
ENDBRANCH  10  11
ENDBRANCH   1  10
TORSDOF 8
ENDMDL
MODEL      594
REMARK  Name = ZINC001190331338
REMARK                            x       y       z     vdW  Elec       q    Type
REMARK                         _______ _______ _______ _____ _____    ______ ____
ROOT
ATOM      1  C   LIG    1        2.249  -5.993   3.781  0.00  0.00    +0.250 C 
ENDROOT
BRANCH   1   2
ATOM      2  N   LIG    1        3.092  -6.587   4.828  0.00  0.00    -0.360 N 
ATOM      3  H   LIG    1        2.732  -6.331   5.735  0.00  0.00    +0.420 HD
BRANCH   2   4
ATOM      4  C   LIG    1        3.084  -8.049   4.692  0.00  0.00    +0.090 C 
ATOM      5  C   LIG    1        2.758  -8.872   5.940  0.00  0.00    +0.100 C 
ATOM      6  C   LIG    1        1.735  -8.762   4.808  0.00  0.00    +0.090 C 
ENDBRANCH   2   4
BRANCH   2   7
ATOM      7  C   LIG    1        4.468  -6.090   4.689  0.00  0.00    +0.250 C 
ATOM      8  C   LIG    1        5.313  -6.595   5.859  0.00  0.00    +0.070 C 
ENDBRANCH   2   7
ENDBRANCH   1   2
BRANCH   1   9
ATOM      9  C   LIG    1        2.143  -4.484   4.006  0.00  0.00    +0.030 C 
BRANCH   9  10
ATOM     10  C   LIG    1        1.327  -3.855   2.875  0.00  0.00    +0.020 C 
BRANCH  10  11
ATOM     11  C   LIG    1        1.221  -2.346   3.100  0.00  0.00    +0.020 C 
BRANCH  11  12
ATOM     12  C   LIG    1        0.405  -1.717   1.969  0.00  0.00    +0.000 C 
BRANCH  12  13
ATOM     13  C   LIG    1        0.299  -0.208   2.194  0.00  0.00    +0.000 C 
BRANCH  13  15
ATOM     14  C   LIG    1       -0.623   1.931   1.288  0.00  0.00    +0.000 C 
ATOM     15  C   LIG    1       -0.517   0.421   1.063  0.00  0.00    -0.010 C 
ENDBRANCH  13  15
ENDBRANCH  12  13
ENDBRANCH  11  12
ENDBRANCH  10  11
ENDBRANCH   9  10
ENDBRANCH   1   9
TORSDOF 9
ENDMDL
MODEL      595
REMARK  Name = ZINC000308641683
REMARK                            x       y       z     vdW  Elec       q    Type
REMARK                         _______ _______ _______ _____ _____    ______ ____
ROOT
ATOM      1  C   LIG    1       -4.000  -5.238  -3.533  0.00  0.00    +0.170 C 
ATOM      2  C   LIG    1       -5.256  -6.108  -3.455  0.00  0.00    +0.090 C 
ENDROOT
BRANCH   1   3
ATOM      3  N   LIG    1       -4.011  -4.472  -4.787  0.00  0.00    -0.510 N 
ATOM      4  H   LIG    1       -3.226  -3.838  -4.801  0.00  0.00    +0.430 HD
ATOM      5  H   LIG    1       -4.870  -3.946  -4.852  0.00  0.00    +0.430 HD
BRANCH   3   6
ATOM      6  C   LIG    1       -3.916  -5.396  -5.925  0.00  0.00    +0.290 C 
BRANCH   6   7
ATOM      7  C   LIG    1       -3.928  -4.599  -7.231  0.00  0.00    -0.090 C 
ATOM      8  C   LIG    1       -2.677  -4.664  -8.110  0.00  0.00    +0.050 C 
ATOM      9  C   LIG    1       -3.954  -5.389  -8.541  0.00  0.00    +0.070 C 
ENDBRANCH   6   7
ENDBRANCH   3   6
ENDBRANCH   1   3
BRANCH   1  10
ATOM     10  C   LIG    1       -3.974  -4.272  -2.346  0.00  0.00    +0.050 C 
BRANCH  10  11
ATOM     11  C   LIG    1       -2.659  -3.489  -2.355  0.00  0.00    -0.000 C 
BRANCH  11  12
ATOM     12  C   LIG    1       -2.633  -2.524  -1.168  0.00  0.00    +0.020 C 
BRANCH  12  13
ATOM     13  C   LIG    1       -1.319  -1.741  -1.176  0.00  0.00    +0.010 C 
BRANCH  13  14
ATOM     14  C   LIG    1       -1.293  -0.775   0.010  0.00  0.00    +0.040 C 
BRANCH  14  16
ATOM     15  C   LIG    1       -0.016   1.306   0.009  0.00  0.00    +0.010 C 
ATOM     16  C   LIG    1        0.002  -0.004   0.002  0.00  0.00    -0.060 C 
ENDBRANCH  14  16
ENDBRANCH  13  14
ENDBRANCH  12  13
ENDBRANCH  11  12
ENDBRANCH  10  11
ENDBRANCH   1  10
TORSDOF 9
ENDMDL
MODEL      596
REMARK  Name = ZINC000308641685
REMARK                            x       y       z     vdW  Elec       q    Type
REMARK                         _______ _______ _______ _____ _____    ______ ____
ROOT
ATOM      1  C   LIG    1       -4.000  -5.238  -3.533  0.00  0.00    +0.170 C 
ATOM      2  C   LIG    1       -5.363  -5.930  -3.597  0.00  0.00    +0.090 C 
ENDROOT
BRANCH   1   3
ATOM      3  N   LIG    1       -2.945  -6.247  -3.366  0.00  0.00    -0.510 N 
ATOM      4  H   LIG    1       -3.147  -6.814  -2.557  0.00  0.00    +0.430 HD
ATOM      5  H   LIG    1       -2.056  -5.787  -3.242  0.00  0.00    +0.430 HD
BRANCH   3   6
ATOM      6  C   LIG    1       -2.892  -7.100  -4.561  0.00  0.00    +0.280 C 
BRANCH   6   7
ATOM      7  C   LIG    1       -1.793  -8.151  -4.387  0.00  0.00    -0.090 C 
ATOM      8  C   LIG    1       -2.221  -9.620  -4.346  0.00  0.00    +0.050 C 
ATOM      9  C   LIG    1       -1.498  -9.068  -5.576  0.00  0.00    +0.070 C 
ENDBRANCH   6   7
ENDBRANCH   3   6
ENDBRANCH   1   3
BRANCH   1  10
ATOM     10  C   LIG    1       -3.974  -4.272  -2.346  0.00  0.00    +0.050 C 
BRANCH  10  11
ATOM     11  C   LIG    1       -2.659  -3.489  -2.355  0.00  0.00    +0.010 C 
BRANCH  11  12
ATOM     12  C   LIG    1       -2.633  -2.524  -1.168  0.00  0.00    +0.020 C 
BRANCH  12  13
ATOM     13  C   LIG    1       -1.319  -1.741  -1.176  0.00  0.00    +0.010 C 
BRANCH  13  14
ATOM     14  C   LIG    1       -1.293  -0.775   0.010  0.00  0.00    +0.040 C 
BRANCH  14  16
ATOM     15  C   LIG    1       -0.016   1.306   0.009  0.00  0.00    +0.020 C 
ATOM     16  C   LIG    1        0.002  -0.004   0.002  0.00  0.00    -0.060 C 
ENDBRANCH  14  16
ENDBRANCH  13  14
ENDBRANCH  12  13
ENDBRANCH  11  12
ENDBRANCH  10  11
ENDBRANCH   1  10
TORSDOF 9
ENDMDL
MODEL      597
REMARK  Name = ZINC000059245311
REMARK                            x       y       z     vdW  Elec       q    Type
REMARK                         _______ _______ _______ _____ _____    ______ ____
ROOT
ATOM      1  C   LIG    1        2.284  -6.114   3.695  0.00  0.00    +0.250 C 
ENDROOT
BRANCH   1   2
ATOM      2  N   LIG    1        2.995  -6.601   4.886  0.00  0.00    -0.510 N 
ATOM      3  H   LIG    1        2.522  -6.275   5.716  0.00  0.00    +0.430 HD
ATOM      4  H   LIG    1        3.941  -6.252   4.878  0.00  0.00    +0.430 HD
BRANCH   2   5
ATOM      5  C   LIG    1        3.015  -8.070   4.877  0.00  0.00    +0.200 C 
ATOM      6  C   LIG    1        3.838  -8.562   3.685  0.00  0.00    +0.090 C 
BRANCH   5   7
ATOM      7  C   LIG    1        3.644  -8.578   6.176  0.00  0.00    -0.080 C 
ATOM      8  C   LIG    1        2.729  -9.298   7.169  0.00  0.00    +0.050 C 
ATOM      9  C   LIG    1        3.756 -10.093   6.361  0.00  0.00    +0.070 C 
ENDBRANCH   5   7
ENDBRANCH   2   5
ENDBRANCH   1   2
BRANCH   1  10
ATOM     10  C   LIG    1        2.264  -4.584   3.704  0.00  0.00    +0.030 C 
BRANCH  10  11
ATOM     11  C   LIG    1        1.524  -4.077   2.464  0.00  0.00    +0.020 C 
BRANCH  11  12
ATOM     12  C   LIG    1        1.503  -2.548   2.473  0.00  0.00    +0.020 C 
BRANCH  12  13
ATOM     13  C   LIG    1        0.763  -2.041   1.233  0.00  0.00    +0.000 C 
BRANCH  13  14
ATOM     14  C   LIG    1        0.742  -0.511   1.242  0.00  0.00    +0.000 C 
BRANCH  14  16
ATOM     15  C   LIG    1       -0.019   1.526   0.010  0.00  0.00    +0.000 C 
ATOM     16  C   LIG    1        0.002  -0.004   0.002  0.00  0.00    -0.010 C 
ENDBRANCH  14  16
ENDBRANCH  13  14
ENDBRANCH  12  13
ENDBRANCH  11  12
ENDBRANCH  10  11
ENDBRANCH   1  10
TORSDOF 9
ENDMDL
MODEL      598
REMARK  Name = ZINC000059114901
REMARK                            x       y       z     vdW  Elec       q    Type
REMARK                         _______ _______ _______ _____ _____    ______ ____
ROOT
ATOM      1  C   LIG    1        2.284  -6.114   3.695  0.00  0.00    +0.160 C 
ATOM      2  C   LIG    1        2.913  -6.623   4.994  0.00  0.00    +0.090 C 
ENDROOT
BRANCH   1   3
ATOM      3  N   LIG    1        3.074  -6.587   2.551  0.00  0.00    -0.510 N 
ATOM      4  H   LIG    1        4.037  -6.307   2.668  0.00  0.00    +0.430 HD
ATOM      5  H   LIG    1        2.709  -6.185   1.701  0.00  0.00    +0.420 HD
BRANCH   3   6
ATOM      6  C   LIG    1        2.996  -8.052   2.473  0.00  0.00    +0.160 C 
ATOM      7  C   LIG    1        3.917  -8.553   1.359  0.00  0.00    +0.090 C 
ATOM      8  C   LIG    1        1.555  -8.470   2.171  0.00  0.00    +0.090 C 
ENDBRANCH   3   6
ENDBRANCH   1   3
BRANCH   1   9
ATOM      9  C   LIG    1        2.264  -4.584   3.704  0.00  0.00    +0.050 C 
BRANCH   9  10
ATOM     10  C   LIG    1        1.524  -4.077   2.464  0.00  0.00    +0.010 C 
BRANCH  10  11
ATOM     11  C   LIG    1        1.503  -2.548   2.473  0.00  0.00    +0.020 C 
BRANCH  11  12
ATOM     12  C   LIG    1        0.763  -2.041   1.233  0.00  0.00    +0.000 C 
BRANCH  12  13
ATOM     13  C   LIG    1        0.742  -0.511   1.242  0.00  0.00    +0.000 C 
BRANCH  13  15
ATOM     14  C   LIG    1       -0.019   1.526   0.010  0.00  0.00    +0.000 C 
ATOM     15  C   LIG    1        0.002  -0.004   0.002  0.00  0.00    -0.010 C 
ENDBRANCH  13  15
ENDBRANCH  12  13
ENDBRANCH  11  12
ENDBRANCH  10  11
ENDBRANCH   9  10
ENDBRANCH   1   9
TORSDOF 8
ENDMDL
MODEL      599
REMARK  Name = ZINC000059090977
REMARK                            x       y       z     vdW  Elec       q    Type
REMARK                         _______ _______ _______ _____ _____    ______ ____
ROOT
ATOM      1  N   LIG    1        2.212  -6.013  -3.799  0.00  0.00    -0.510 N 
ATOM      2  H   LIG    1        1.265  -6.362  -3.792  0.00  0.00    +0.420 HD
ATOM      3  H   LIG    1        2.700  -6.347  -2.982  0.00  0.00    +0.430 HD
ENDROOT
BRANCH   1   4
ATOM      4  C   LIG    1        2.900  -6.487  -5.008  0.00  0.00    +0.170 C 
ATOM      5  C   LIG    1        2.092  -6.086  -6.244  0.00  0.00    +0.090 C 
BRANCH   4   6
ATOM      6  C   LIG    1        3.030  -8.010  -4.956  0.00  0.00    -0.020 C 
ATOM      7  C   LIG    1        3.855  -8.492  -6.152  0.00  0.00    +0.070 C 
ATOM      8  C   LIG    1        1.639  -8.644  -5.008  0.00  0.00    +0.040 C 
ENDBRANCH   4   6
ENDBRANCH   1   4
BRANCH   1   9
ATOM      9  C   LIG    1        2.192  -4.544  -3.791  0.00  0.00    +0.250 C 
BRANCH   9  10
ATOM     10  C   LIG    1        1.476  -4.051  -2.532  0.00  0.00    +0.030 C 
BRANCH  10  11
ATOM     11  C   LIG    1        1.455  -2.521  -2.524  0.00  0.00    +0.020 C 
BRANCH  11  12
ATOM     12  C   LIG    1        0.739  -2.027  -1.265  0.00  0.00    +0.020 C 
BRANCH  12  13
ATOM     13  C   LIG    1        0.718  -0.497  -1.257  0.00  0.00    +0.000 C 
BRANCH  13  15
ATOM     14  C   LIG    1       -0.019   1.526   0.010  0.00  0.00    +0.000 C 
ATOM     15  C   LIG    1        0.002  -0.004   0.002  0.00  0.00    -0.010 C 
ENDBRANCH  13  15
ENDBRANCH  12  13
ENDBRANCH  11  12
ENDBRANCH  10  11
ENDBRANCH   9  10
ENDBRANCH   1   9
TORSDOF 8
ENDMDL
MODEL      600
REMARK  Name = ZINC001193472941
REMARK                            x       y       z     vdW  Elec       q    Type
REMARK                         _______ _______ _______ _____ _____    ______ ____
ROOT
ATOM      1  C   LIG    1        2.789  -3.459   1.947  0.00  0.00    +0.250 C 
ENDROOT
BRANCH   1   2
ATOM      2  N   LIG    1        1.693  -4.229   1.344  0.00  0.00    -0.390 N 
ATOM      3  C   LIG    1        1.923  -4.358  -0.102  0.00  0.00    +0.310 C 
ATOM      4  H   LIG    1        1.657  -5.147   1.762  0.00  0.00    +0.420 HD
BRANCH   2   5
ATOM      5  C   LIG    1        0.420  -3.534   1.577  0.00  0.00    +0.250 C 
BRANCH   5   6
ATOM      6  C   LIG    1       -0.734  -4.394   1.059  0.00  0.00    +0.060 C 
BRANCH   6   8
ATOM      7  C   LIG    1       -2.858  -3.461   0.300  0.00  0.00    +0.060 C 
ATOM      8  C   LIG    1       -2.039  -3.681   1.299  0.00  0.00    -0.060 C 
ENDBRANCH   6   8
ENDBRANCH   5   6
ENDBRANCH   2   5
ENDBRANCH   1   2
BRANCH   1   9
ATOM      9  C   LIG    1        4.092  -4.255   1.836  0.00  0.00    -0.010 C 
BRANCH   9  10
ATOM     10  C   LIG    1        5.251  -3.412   2.372  0.00  0.00    +0.040 C 
ATOM     11  C   LIG    1        5.449  -2.188   1.475  0.00  0.00    +0.020 C 
ENDBRANCH   9  10
BRANCH   9  12
ATOM     12  C   LIG    1        3.975  -5.541   2.655  0.00  0.00    +0.000 C 
BRANCH  12  13
ATOM     13  C   LIG    1        5.217  -6.406   2.426  0.00  0.00    +0.020 C 
BRANCH  13  14
ATOM     14  C   LIG    1        5.043  -7.748   3.141  0.00  0.00    -0.010 C 
ATOM     15  C   LIG    1        6.284  -8.612   2.912  0.00  0.00    +0.020 C 
ENDBRANCH  13  14
ENDBRANCH  12  13
ENDBRANCH   9  12
ENDBRANCH   1   9
TORSDOF 9
ENDMDL
MODEL      601
REMARK  Name = ZINC000059090976
REMARK                            x       y       z     vdW  Elec       q    Type
REMARK                         _______ _______ _______ _____ _____    ______ ____
ROOT
ATOM      1  N   LIG    1        2.212  -6.013  -3.799  0.00  0.00    -0.510 N 
ATOM      2  H   LIG    1        1.265  -6.362  -3.792  0.00  0.00    +0.430 HD
ATOM      3  H   LIG    1        2.700  -6.347  -2.982  0.00  0.00    +0.430 HD
ENDROOT
BRANCH   1   4
ATOM      4  C   LIG    1        2.900  -6.487  -5.008  0.00  0.00    +0.170 C 
ATOM      5  C   LIG    1        4.369  -6.062  -4.958  0.00  0.00    +0.080 C 
BRANCH   4   6
ATOM      6  C   LIG    1        2.812  -8.012  -5.080  0.00  0.00    -0.020 C 
ATOM      7  C   LIG    1        3.528  -8.506  -6.338  0.00  0.00    +0.070 C 
ATOM      8  C   LIG    1        1.343  -8.437  -5.129  0.00  0.00    +0.040 C 
ENDBRANCH   4   6
ENDBRANCH   1   4
BRANCH   1   9
ATOM      9  C   LIG    1        2.192  -4.544  -3.791  0.00  0.00    +0.250 C 
BRANCH   9  10
ATOM     10  C   LIG    1        1.476  -4.051  -2.532  0.00  0.00    +0.030 C 
BRANCH  10  11
ATOM     11  C   LIG    1        1.455  -2.521  -2.524  0.00  0.00    +0.020 C 
BRANCH  11  12
ATOM     12  C   LIG    1        0.739  -2.027  -1.265  0.00  0.00    +0.020 C 
BRANCH  12  13
ATOM     13  C   LIG    1        0.718  -0.497  -1.257  0.00  0.00    +0.000 C 
BRANCH  13  15
ATOM     14  C   LIG    1       -0.019   1.526   0.010  0.00  0.00    +0.000 C 
ATOM     15  C   LIG    1        0.002  -0.004   0.002  0.00  0.00    -0.010 C 
ENDBRANCH  13  15
ENDBRANCH  12  13
ENDBRANCH  11  12
ENDBRANCH  10  11
ENDBRANCH   9  10
ENDBRANCH   1   9
TORSDOF 8
ENDMDL
MODEL      602
REMARK  Name = ZINC000059245312
REMARK                            x       y       z     vdW  Elec       q    Type
REMARK                         _______ _______ _______ _____ _____    ______ ____
ROOT
ATOM      1  C   LIG    1        2.284  -6.114   3.695  0.00  0.00    +0.250 C 
ENDROOT
BRANCH   1   2
ATOM      2  N   LIG    1        2.995  -6.601   4.886  0.00  0.00    -0.510 N 
ATOM      3  H   LIG    1        2.522  -6.275   5.716  0.00  0.00    +0.430 HD
ATOM      4  H   LIG    1        3.941  -6.252   4.878  0.00  0.00    +0.430 HD
BRANCH   2   5
ATOM      5  C   LIG    1        3.015  -8.070   4.877  0.00  0.00    +0.200 C 
ATOM      6  C   LIG    1        1.586  -8.600   5.014  0.00  0.00    +0.090 C 
BRANCH   5   7
ATOM      7  C   LIG    1        3.860  -8.575   6.048  0.00  0.00    -0.080 C 
ATOM      8  C   LIG    1        3.152  -9.394   7.129  0.00  0.00    +0.050 C 
ATOM      9  C   LIG    1        4.102 -10.082   6.146  0.00  0.00    +0.070 C 
ENDBRANCH   5   7
ENDBRANCH   2   5
ENDBRANCH   1   2
BRANCH   1  10
ATOM     10  C   LIG    1        2.264  -4.584   3.704  0.00  0.00    +0.030 C 
BRANCH  10  11
ATOM     11  C   LIG    1        1.524  -4.077   2.464  0.00  0.00    +0.020 C 
BRANCH  11  12
ATOM     12  C   LIG    1        1.503  -2.548   2.473  0.00  0.00    +0.020 C 
BRANCH  12  13
ATOM     13  C   LIG    1        0.763  -2.041   1.233  0.00  0.00    +0.000 C 
BRANCH  13  14
ATOM     14  C   LIG    1        0.742  -0.511   1.242  0.00  0.00    +0.000 C 
BRANCH  14  16
ATOM     15  C   LIG    1       -0.019   1.526   0.010  0.00  0.00    +0.000 C 
ATOM     16  C   LIG    1        0.002  -0.004   0.002  0.00  0.00    -0.010 C 
ENDBRANCH  14  16
ENDBRANCH  13  14
ENDBRANCH  12  13
ENDBRANCH  11  12
ENDBRANCH  10  11
ENDBRANCH   1  10
TORSDOF 9
ENDMDL
MODEL      603
REMARK  Name = ZINC001193472933
REMARK                            x       y       z     vdW  Elec       q    Type
REMARK                         _______ _______ _______ _____ _____    ______ ____
ROOT
ATOM      1  C   LIG    1        2.783  -3.742   2.526  0.00  0.00    +0.250 C 
ENDROOT
BRANCH   1   2
ATOM      2  N   LIG    1        2.448  -2.611   1.651  0.00  0.00    -0.390 N 
ATOM      3  C   LIG    1        3.517  -1.606   1.718  0.00  0.00    +0.310 C 
ATOM      4  H   LIG    1        2.353  -2.938   0.701  0.00  0.00    +0.420 HD
BRANCH   2   5
ATOM      5  C   LIG    1        1.182  -2.010   2.091  0.00  0.00    +0.250 C 
BRANCH   5   6
ATOM      6  C   LIG    1        0.769  -0.913   1.106  0.00  0.00    +0.060 C 
BRANCH   6   8
ATOM      7  C   LIG    1       -0.611   0.998   1.741  0.00  0.00    +0.060 C 
ATOM      8  C   LIG    1       -0.530  -0.296   1.558  0.00  0.00    -0.060 C 
ENDBRANCH   6   8
ENDBRANCH   5   6
ENDBRANCH   2   5
ENDBRANCH   1   2
BRANCH   1   9
ATOM      9  C   LIG    1        4.067  -4.409   2.029  0.00  0.00    -0.020 C 
BRANCH   9  10
ATOM     10  C   LIG    1        3.814  -5.044   0.660  0.00  0.00    +0.020 C 
ATOM     11  C   LIG    1        4.061  -4.007  -0.437  0.00  0.00    +0.010 C 
ENDBRANCH   9  10
BRANCH   9  12
ATOM     12  C   LIG    1        4.497  -5.491   3.022  0.00  0.00    +0.040 C 
BRANCH  12  13
ATOM     13  C   LIG    1        5.845  -6.072   2.590  0.00  0.00    +0.020 C 
BRANCH  13  14
ATOM     14  C   LIG    1        6.275  -7.154   3.583  0.00  0.00    -0.010 C 
ATOM     15  C   LIG    1        7.623  -7.735   3.151  0.00  0.00    +0.020 C 
ENDBRANCH  13  14
ENDBRANCH  12  13
ENDBRANCH   9  12
ENDBRANCH   1   9
TORSDOF 9
ENDMDL
MODEL      604
REMARK  Name = ZINC000126704076
REMARK                            x       y       z     vdW  Elec       q    Type
REMARK                         _______ _______ _______ _____ _____    ______ ____
ROOT
ATOM      1  N   LIG    1        3.680  -1.461   1.581  0.00  0.00    -0.510 N 
ATOM      2  H   LIG    1        3.003  -2.168   1.823  0.00  0.00    +0.420 HD
ATOM      3  H   LIG    1        3.737  -0.781   2.325  0.00  0.00    +0.420 HD
ENDROOT
BRANCH   1   4
ATOM      4  C   LIG    1        3.270  -0.793   0.339  0.00  0.00    +0.150 C 
ATOM      5  C   LIG    1        3.023  -1.843  -0.747  0.00  0.00    +0.090 C 
BRANCH   4   6
ATOM      6  C   LIG    1        1.984  -0.003   0.585  0.00  0.00    +0.060 C 
BRANCH   6   7
ATOM      7  C   LIG    1        2.262   1.127   1.578  0.00  0.00    +0.050 C 
BRANCH   7   9
ATOM      8  C   LIG    1        0.550   2.068   3.042  0.00  0.00    +0.040 C 
ATOM      9  C   LIG    1        0.995   1.906   1.821  0.00  0.00    -0.050 C 
ENDBRANCH   7   9
ENDBRANCH   6   7
ENDBRANCH   4   6
ENDBRANCH   1   4
BRANCH   1  10
ATOM     10  C   LIG    1        4.995  -2.087   1.389  0.00  0.00    +0.160 C 
ATOM     11  C   LIG    1        5.125  -3.296   2.319  0.00  0.00    +0.090 C 
BRANCH  10  12
ATOM     12  C   LIG    1        6.095  -1.074   1.713  0.00  0.00    +0.060 C 
BRANCH  12  13
ATOM     13  C   LIG    1        6.059   0.063   0.690  0.00  0.00    +0.010 C 
BRANCH  13  14
ATOM     14  C   LIG    1        7.209   1.034   0.966  0.00  0.00    +0.020 C 
BRANCH  14  15
ATOM     15  C   LIG    1        7.172   2.171  -0.058  0.00  0.00    -0.010 C 
ATOM     16  C   LIG    1        8.322   3.142   0.218  0.00  0.00    +0.020 C 
ENDBRANCH  14  15
ENDBRANCH  13  14
ENDBRANCH  12  13
ENDBRANCH  10  12
ENDBRANCH   1  10
TORSDOF 9
ENDMDL
MODEL      605
REMARK  Name = ZINC000126710267
REMARK                            x       y       z     vdW  Elec       q    Type
REMARK                         _______ _______ _______ _____ _____    ______ ____
ROOT
ATOM      1  N   LIG    1       -2.688  -3.376   0.027  0.00  0.00    -0.510 N 
ATOM      2  H   LIG    1       -2.552  -2.809   0.851  0.00  0.00    +0.430 HD
ATOM      3  H   LIG    1       -1.962  -4.074  -0.024  0.00  0.00    +0.430 HD
ENDROOT
BRANCH   1   4
ATOM      4  C   LIG    1       -2.633  -2.524  -1.168  0.00  0.00    +0.170 C 
ATOM      5  C   LIG    1       -2.714  -3.398  -2.421  0.00  0.00    +0.090 C 
BRANCH   4   6
ATOM      6  C   LIG    1       -1.319  -1.741  -1.176  0.00  0.00    +0.060 C 
BRANCH   6   7
ATOM      7  C   LIG    1       -1.293  -0.775   0.010  0.00  0.00    +0.040 C 
BRANCH   7   9
ATOM      8  C   LIG    1       -0.016   1.306   0.009  0.00  0.00    +0.050 C 
ATOM      9  C   LIG    1        0.002  -0.004   0.002  0.00  0.00    -0.070 C 
ENDBRANCH   7   9
ENDBRANCH   6   7
ENDBRANCH   4   6
ENDBRANCH   1   4
BRANCH   1  10
ATOM     10  C   LIG    1       -3.998  -4.036   0.098  0.00  0.00    +0.250 C 
BRANCH  10  11
ATOM     11  C   LIG    1       -4.056  -4.923   1.343  0.00  0.00    +0.030 C 
BRANCH  11  12
ATOM     12  C   LIG    1       -5.420  -5.611   1.417  0.00  0.00    +0.020 C 
BRANCH  12  13
ATOM     13  C   LIG    1       -5.477  -6.499   2.662  0.00  0.00    +0.020 C 
BRANCH  13  14
ATOM     14  C   LIG    1       -6.842  -7.187   2.736  0.00  0.00    -0.010 C 
ATOM     15  C   LIG    1       -6.899  -8.074   3.981  0.00  0.00    +0.020 C 
ENDBRANCH  13  14
ENDBRANCH  12  13
ENDBRANCH  11  12
ENDBRANCH  10  11
ENDBRANCH   1  10
TORSDOF 9
ENDMDL
MODEL      606
REMARK  Name = ZINC000126704270
REMARK                            x       y       z     vdW  Elec       q    Type
REMARK                         _______ _______ _______ _____ _____    ______ ____
ROOT
ATOM      1  N   LIG    1        3.800  -1.514   1.380  0.00  0.00    -0.510 N 
ATOM      2  H   LIG    1        3.720  -1.132   2.310  0.00  0.00    +0.420 HD
ATOM      3  H   LIG    1        3.749  -0.767   0.704  0.00  0.00    +0.420 HD
ENDROOT
BRANCH   1   4
ATOM      4  C   LIG    1        2.705  -2.464   1.145  0.00  0.00    +0.160 C 
ATOM      5  C   LIG    1        2.708  -3.528   2.244  0.00  0.00    +0.090 C 
BRANCH   4   6
ATOM      6  C   LIG    1        1.370  -1.717   1.161  0.00  0.00    +0.060 C 
BRANCH   6   7
ATOM      7  C   LIG    1        1.317  -0.740  -0.015  0.00  0.00    +0.050 C 
BRANCH   7   9
ATOM      8  C   LIG    1       -0.016   1.306   0.009  0.00  0.00    +0.040 C 
ATOM      9  C   LIG    1        0.002  -0.004   0.002  0.00  0.00    -0.050 C 
ENDBRANCH   7   9
ENDBRANCH   6   7
ENDBRANCH   4   6
ENDBRANCH   1   4
BRANCH   1  10
ATOM     10  C   LIG    1        5.088  -2.208   1.245  0.00  0.00    +0.160 C 
ATOM     11  C   LIG    1        5.264  -2.680  -0.200  0.00  0.00    +0.090 C 
BRANCH  10  12
ATOM     12  C   LIG    1        6.224  -1.251   1.612  0.00  0.00    +0.050 C 
BRANCH  12  13
ATOM     13  C   LIG    1        6.119  -0.877   3.091  0.00  0.00    -0.000 C 
BRANCH  13  14
ATOM     14  C   LIG    1        7.255   0.080   3.458  0.00  0.00    +0.020 C 
BRANCH  14  15
ATOM     15  C   LIG    1        7.149   0.454   4.938  0.00  0.00    -0.010 C 
ATOM     16  C   LIG    1        8.286   1.411   5.304  0.00  0.00    +0.020 C 
ENDBRANCH  14  15
ENDBRANCH  13  14
ENDBRANCH  12  13
ENDBRANCH  10  12
ENDBRANCH   1  10
TORSDOF 9
ENDMDL
MODEL      607
REMARK  Name = ZINC000126704504
REMARK                            x       y       z     vdW  Elec       q    Type
REMARK                         _______ _______ _______ _____ _____    ______ ____
ROOT
ATOM      1  N   LIG    1        2.783  -3.301  -0.060  0.00  0.00    -0.510 N 
ATOM      2  H   LIG    1        2.631  -2.729  -0.877  0.00  0.00    +0.420 HD
ATOM      3  H   LIG    1        2.075  -4.019  -0.017  0.00  0.00    +0.420 HD
ENDROOT
BRANCH   1   4
ATOM      4  C   LIG    1        2.705  -2.464   1.145  0.00  0.00    +0.160 C 
ATOM      5  C   LIG    1        2.810  -3.349   2.388  0.00  0.00    +0.090 C 
BRANCH   4   6
ATOM      6  C   LIG    1        1.370  -1.717   1.161  0.00  0.00    +0.060 C 
BRANCH   6   7
ATOM      7  C   LIG    1        1.317  -0.740  -0.015  0.00  0.00    +0.040 C 
BRANCH   7   9
ATOM      8  C   LIG    1       -0.016   1.306   0.009  0.00  0.00    +0.050 C 
ATOM      9  C   LIG    1        0.002  -0.004   0.002  0.00  0.00    -0.070 C 
ENDBRANCH   7   9
ENDBRANCH   6   7
ENDBRANCH   4   6
ENDBRANCH   1   4
BRANCH   1  10
ATOM     10  C   LIG    1        4.110  -3.925  -0.138  0.00  0.00    +0.160 C 
ATOM     11  C   LIG    1        5.173  -2.841  -0.329  0.00  0.00    +0.090 C 
BRANCH  10  12
ATOM     12  C   LIG    1        4.150  -4.893  -1.322  0.00  0.00    +0.050 C 
BRANCH  12  13
ATOM     13  C   LIG    1        3.176  -6.045  -1.073  0.00  0.00    -0.000 C 
BRANCH  13  14
ATOM     14  C   LIG    1        3.216  -7.013  -2.257  0.00  0.00    +0.020 C 
BRANCH  14  15
ATOM     15  C   LIG    1        2.241  -8.165  -2.007  0.00  0.00    -0.010 C 
ATOM     16  C   LIG    1        2.281  -9.133  -3.192  0.00  0.00    +0.020 C 
ENDBRANCH  14  15
ENDBRANCH  13  14
ENDBRANCH  12  13
ENDBRANCH  10  12
ENDBRANCH   1  10
TORSDOF 9
ENDMDL
MODEL      608
REMARK  Name = ZINC000126704733
REMARK                            x       y       z     vdW  Elec       q    Type
REMARK                         _______ _______ _______ _____ _____    ______ ____
ROOT
ATOM      1  N   LIG    1        2.896  -3.282  -0.197  0.00  0.00    -0.510 N 
ATOM      2  H   LIG    1        2.758  -2.666  -0.984  0.00  0.00    +0.420 HD
ATOM      3  H   LIG    1        2.249  -4.054  -0.256  0.00  0.00    +0.420 HD
ENDROOT
BRANCH   1   4
ATOM      4  C   LIG    1        2.664  -2.542   1.050  0.00  0.00    +0.160 C 
ATOM      5  C   LIG    1        1.189  -2.654   1.442  0.00  0.00    +0.090 C 
BRANCH   4   6
ATOM      6  C   LIG    1        3.026  -1.070   0.846  0.00  0.00    +0.060 C 
BRANCH   6   7
ATOM      7  C   LIG    1        4.520  -0.951   0.535  0.00  0.00    +0.040 C 
BRANCH   7   9
ATOM      8  C   LIG    1        5.874   0.966   1.208  0.00  0.00    +0.050 C 
ATOM      9  C   LIG    1        4.903   0.505   0.460  0.00  0.00    -0.060 C 
ENDBRANCH   7   9
ENDBRANCH   6   7
ENDBRANCH   4   6
ENDBRANCH   1   4
BRANCH   1  10
ATOM     10  C   LIG    1        4.273  -3.795  -0.213  0.00  0.00    +0.160 C 
ATOM     11  C   LIG    1        4.434  -4.856   0.877  0.00  0.00    +0.090 C 
BRANCH  10  12
ATOM     12  C   LIG    1        4.570  -4.417  -1.579  0.00  0.00    +0.050 C 
BRANCH  12  13
ATOM     13  C   LIG    1        4.530  -3.329  -2.655  0.00  0.00    -0.000 C 
BRANCH  13  14
ATOM     14  C   LIG    1        4.827  -3.951  -4.020  0.00  0.00    +0.020 C 
BRANCH  14  15
ATOM     15  C   LIG    1        4.788  -2.864  -5.096  0.00  0.00    -0.010 C 
ATOM     16  C   LIG    1        5.085  -3.486  -6.462  0.00  0.00    +0.020 C 
ENDBRANCH  14  15
ENDBRANCH  13  14
ENDBRANCH  12  13
ENDBRANCH  10  12
ENDBRANCH   1  10
TORSDOF 9
ENDMDL
MODEL      609
REMARK  Name = ZINC000126710055
REMARK                            x       y       z     vdW  Elec       q    Type
REMARK                         _______ _______ _______ _____ _____    ______ ____
ROOT
ATOM      1  N   LIG    1       -3.754  -1.601  -1.393  0.00  0.00    -0.510 N 
ATOM      2  H   LIG    1       -3.684  -1.206  -2.319  0.00  0.00    +0.430 HD
ATOM      3  H   LIG    1       -3.723  -0.861  -0.708  0.00  0.00    +0.430 HD
ENDROOT
BRANCH   1   4
ATOM      4  C   LIG    1       -2.633  -2.524  -1.168  0.00  0.00    +0.170 C 
ATOM      5  C   LIG    1       -2.607  -3.575  -2.279  0.00  0.00    +0.090 C 
BRANCH   4   6
ATOM      6  C   LIG    1       -1.319  -1.741  -1.176  0.00  0.00    +0.060 C 
BRANCH   6   7
ATOM      7  C   LIG    1       -1.293  -0.775   0.010  0.00  0.00    +0.050 C 
BRANCH   7   9
ATOM      8  C   LIG    1       -0.016   1.306   0.009  0.00  0.00    +0.040 C 
ATOM      9  C   LIG    1        0.002  -0.004   0.002  0.00  0.00    -0.060 C 
ENDBRANCH   7   9
ENDBRANCH   6   7
ENDBRANCH   4   6
ENDBRANCH   1   4
BRANCH   1  10
ATOM     10  C   LIG    1       -5.022  -2.332  -1.266  0.00  0.00    +0.250 C 
BRANCH  10  11
ATOM     11  C   LIG    1       -6.190  -1.371  -1.500  0.00  0.00    +0.030 C 
BRANCH  11  12
ATOM     12  C   LIG    1       -7.511  -2.131  -1.368  0.00  0.00    +0.020 C 
BRANCH  12  13
ATOM     13  C   LIG    1       -8.678  -1.171  -1.603  0.00  0.00    +0.020 C 
BRANCH  13  14
ATOM     14  C   LIG    1       -9.999  -1.931  -1.470  0.00  0.00    -0.010 C 
ATOM     15  C   LIG    1      -11.166  -0.970  -1.705  0.00  0.00    +0.020 C 
ENDBRANCH  13  14
ENDBRANCH  12  13
ENDBRANCH  11  12
ENDBRANCH  10  11
ENDBRANCH   1  10
TORSDOF 9
ENDMDL
MODEL      610
REMARK  Name = ZINC000308653506
REMARK                            x       y       z     vdW  Elec       q    Type
REMARK                         _______ _______ _______ _____ _____    ______ ____
ROOT
ATOM      1  C   LIG    1       -4.000  -5.238  -3.533  0.00  0.00    +0.160 C 
ATOM      2  C   LIG    1       -5.363  -5.930  -3.597  0.00  0.00    +0.090 C 
ENDROOT
BRANCH   1   3
ATOM      3  N   LIG    1       -2.945  -6.247  -3.366  0.00  0.00    -0.510 N 
ATOM      4  H   LIG    1       -3.147  -6.814  -2.557  0.00  0.00    +0.430 HD
ATOM      5  H   LIG    1       -2.056  -5.787  -3.242  0.00  0.00    +0.420 HD
BRANCH   3   6
ATOM      6  C   LIG    1       -2.892  -7.100  -4.561  0.00  0.00    +0.200 C 
ATOM      7  C   LIG    1       -2.463  -6.263  -5.768  0.00  0.00    +0.090 C 
BRANCH   6   8
ATOM      8  C   LIG    1       -1.896  -8.210  -4.341  0.00  0.00    -0.090 C 
ATOM      9  C   LIG    1       -2.286  -9.460  -4.391  0.00  0.00    +0.130 C 
ENDBRANCH   6   8
ENDBRANCH   3   6
ENDBRANCH   1   3
BRANCH   1  10
ATOM     10  C   LIG    1       -3.974  -4.272  -2.346  0.00  0.00    +0.050 C 
BRANCH  10  11
ATOM     11  C   LIG    1       -2.659  -3.489  -2.355  0.00  0.00    +0.010 C 
BRANCH  11  12
ATOM     12  C   LIG    1       -2.633  -2.524  -1.168  0.00  0.00    +0.020 C 
BRANCH  12  13
ATOM     13  C   LIG    1       -1.319  -1.741  -1.176  0.00  0.00    +0.010 C 
BRANCH  13  14
ATOM     14  C   LIG    1       -1.293  -0.775   0.010  0.00  0.00    +0.040 C 
BRANCH  14  16
ATOM     15  C   LIG    1       -0.016   1.306   0.009  0.00  0.00    +0.020 C 
ATOM     16  C   LIG    1        0.002  -0.004   0.002  0.00  0.00    -0.060 C 
ENDBRANCH  14  16
ENDBRANCH  13  14
ENDBRANCH  12  13
ENDBRANCH  11  12
ENDBRANCH  10  11
ENDBRANCH   1  10
TORSDOF 9
ENDMDL
MODEL      611
REMARK  Name = ZINC000308653505
REMARK                            x       y       z     vdW  Elec       q    Type
REMARK                         _______ _______ _______ _____ _____    ______ ____
ROOT
ATOM      1  C   LIG    1       -4.139  -5.193  -3.432  0.00  0.00    +0.160 C 
ATOM      2  C   LIG    1       -5.596  -5.651  -3.335  0.00  0.00    +0.090 C 
ENDROOT
BRANCH   1   3
ATOM      3  N   LIG    1       -3.942  -4.451  -4.684  0.00  0.00    -0.510 N 
ATOM      4  H   LIG    1       -3.009  -4.067  -4.705  0.00  0.00    +0.420 HD
ATOM      5  H   LIG    1       -4.615  -3.701  -4.740  0.00  0.00    +0.430 HD
BRANCH   3   6
ATOM      6  C   LIG    1       -4.124  -5.357  -5.825  0.00  0.00    +0.200 C 
ATOM      7  C   LIG    1       -4.059  -4.557  -7.128  0.00  0.00    +0.090 C 
BRANCH   6   8
ATOM      8  C   LIG    1       -3.033  -6.397  -5.820  0.00  0.00    -0.090 C 
ATOM      9  C   LIG    1       -3.339  -7.668  -5.731  0.00  0.00    +0.120 C 
ENDBRANCH   6   8
ENDBRANCH   3   6
ENDBRANCH   1   3
BRANCH   1  10
ATOM     10  C   LIG    1       -3.809  -4.288  -2.244  0.00  0.00    +0.050 C 
BRANCH  10  11
ATOM     11  C   LIG    1       -2.321  -3.931  -2.273  0.00  0.00    +0.010 C 
BRANCH  11  12
ATOM     12  C   LIG    1       -1.991  -3.025  -1.085  0.00  0.00    +0.020 C 
BRANCH  12  13
ATOM     13  C   LIG    1       -0.504  -2.668  -1.114  0.00  0.00    +0.010 C 
BRANCH  13  14
ATOM     14  C   LIG    1       -0.173  -1.762   0.074  0.00  0.00    +0.040 C 
BRANCH  14  16
ATOM     15  C   LIG    1        1.665  -0.155   0.055  0.00  0.00    +0.010 C 
ATOM     16  C   LIG    1        1.292  -1.411   0.045  0.00  0.00    -0.060 C 
ENDBRANCH  14  16
ENDBRANCH  13  14
ENDBRANCH  12  13
ENDBRANCH  11  12
ENDBRANCH  10  11
ENDBRANCH   1  10
TORSDOF 9
ENDMDL
MODEL      612
REMARK  Name = ZINC000308653504
REMARK                            x       y       z     vdW  Elec       q    Type
REMARK                         _______ _______ _______ _____ _____    ______ ____
ROOT
ATOM      1  C   LIG    1       -3.906  -5.195  -3.588  0.00  0.00    +0.160 C 
ATOM      2  C   LIG    1       -5.301  -5.759  -3.865  0.00  0.00    +0.090 C 
ENDROOT
BRANCH   1   3
ATOM      3  N   LIG    1       -2.968  -6.301  -3.355  0.00  0.00    -0.510 N 
ATOM      4  H   LIG    1       -3.327  -6.898  -2.625  0.00  0.00    +0.430 HD
ATOM      5  H   LIG    1       -2.072  -5.930  -3.076  0.00  0.00    +0.420 HD
BRANCH   3   6
ATOM      6  C   LIG    1       -2.812  -7.080  -4.591  0.00  0.00    +0.200 C 
ATOM      7  C   LIG    1       -1.945  -8.310  -4.313  0.00  0.00    +0.090 C 
BRANCH   6   8
ATOM      8  C   LIG    1       -2.150  -6.226  -5.642  0.00  0.00    -0.090 C 
ATOM      9  C   LIG    1       -2.805  -5.899  -6.728  0.00  0.00    +0.120 C 
ENDBRANCH   6   8
ENDBRANCH   3   6
ENDBRANCH   1   3
BRANCH   1  10
ATOM     10  C   LIG    1       -3.955  -4.298  -2.350  0.00  0.00    +0.050 C 
BRANCH  10  11
ATOM     11  C   LIG    1       -2.591  -3.636  -2.145  0.00  0.00    +0.010 C 
BRANCH  11  12
ATOM     12  C   LIG    1       -2.640  -2.739  -0.907  0.00  0.00    +0.020 C 
BRANCH  12  13
ATOM     13  C   LIG    1       -1.276  -2.077  -0.702  0.00  0.00    +0.010 C 
BRANCH  13  14
ATOM     14  C   LIG    1       -1.325  -1.180   0.536  0.00  0.00    +0.040 C 
BRANCH  14  16
ATOM     15  C   LIG    1        0.107   0.777   0.824  0.00  0.00    +0.020 C 
ATOM     16  C   LIG    1        0.018  -0.528   0.737  0.00  0.00    -0.060 C 
ENDBRANCH  14  16
ENDBRANCH  13  14
ENDBRANCH  12  13
ENDBRANCH  11  12
ENDBRANCH  10  11
ENDBRANCH   1  10
TORSDOF 9
ENDMDL
MODEL      613
REMARK  Name = ZINC000308653503
REMARK                            x       y       z     vdW  Elec       q    Type
REMARK                         _______ _______ _______ _____ _____    ______ ____
ROOT
ATOM      1  C   LIG    1       -4.000  -5.238  -3.533  0.00  0.00    +0.160 C 
ATOM      2  C   LIG    1       -5.256  -6.108  -3.455  0.00  0.00    +0.090 C 
ENDROOT
BRANCH   1   3
ATOM      3  N   LIG    1       -4.011  -4.472  -4.787  0.00  0.00    -0.510 N 
ATOM      4  H   LIG    1       -3.226  -3.838  -4.801  0.00  0.00    +0.420 HD
ATOM      5  H   LIG    1       -4.870  -3.946  -4.852  0.00  0.00    +0.430 HD
BRANCH   3   6
ATOM      6  C   LIG    1       -3.916  -5.396  -5.925  0.00  0.00    +0.200 C 
ATOM      7  C   LIG    1       -2.559  -6.103  -5.895  0.00  0.00    +0.090 C 
BRANCH   6   8
ATOM      8  C   LIG    1       -4.051  -4.623  -7.212  0.00  0.00    -0.090 C 
ATOM      9  C   LIG    1       -5.080  -4.830  -7.995  0.00  0.00    +0.130 C 
ENDBRANCH   6   8
ENDBRANCH   3   6
ENDBRANCH   1   3
BRANCH   1  10
ATOM     10  C   LIG    1       -3.974  -4.272  -2.346  0.00  0.00    +0.050 C 
BRANCH  10  11
ATOM     11  C   LIG    1       -2.659  -3.489  -2.355  0.00  0.00    +0.010 C 
BRANCH  11  12
ATOM     12  C   LIG    1       -2.633  -2.524  -1.168  0.00  0.00    +0.020 C 
BRANCH  12  13
ATOM     13  C   LIG    1       -1.319  -1.741  -1.176  0.00  0.00    +0.010 C 
BRANCH  13  14
ATOM     14  C   LIG    1       -1.293  -0.775   0.010  0.00  0.00    +0.040 C 
BRANCH  14  16
ATOM     15  C   LIG    1       -0.016   1.306   0.009  0.00  0.00    +0.010 C 
ATOM     16  C   LIG    1        0.002  -0.004   0.002  0.00  0.00    -0.060 C 
ENDBRANCH  14  16
ENDBRANCH  13  14
ENDBRANCH  12  13
ENDBRANCH  11  12
ENDBRANCH  10  11
ENDBRANCH   1  10
TORSDOF 9
ENDMDL
MODEL      614
REMARK  Name = ZINC000527732965
REMARK                            x       y       z     vdW  Elec       q    Type
REMARK                         _______ _______ _______ _____ _____    ______ ____
ROOT
ATOM      1  N   LIG    1       -2.719  -3.297   2.459  0.00  0.00    -0.510 N 
ATOM      2  H   LIG    1       -2.666  -2.721   3.286  0.00  0.00    +0.430 HD
ATOM      3  H   LIG    1       -1.944  -3.943   2.448  0.00  0.00    +0.430 HD
ENDROOT
BRANCH   1   4
ATOM      4  C   LIG    1       -3.981  -4.049   2.467  0.00  0.00    +0.170 C 
ATOM      5  C   LIG    1       -4.007  -5.015   1.280  0.00  0.00    +0.040 C 
ATOM      6  C   LIG    1       -5.322  -5.798   1.289  0.00  0.00    +0.030 C 
ATOM      7  C   LIG    1       -5.436  -6.589   2.593  0.00  0.00    +0.020 C 
ATOM      8  C   LIG    1       -5.409  -5.624   3.780  0.00  0.00    +0.040 C 
ATOM      9  C   LIG    1       -4.095  -4.841   3.771  0.00  0.00    +0.040 C 
ENDBRANCH   1   4
BRANCH   1  10
ATOM     10  C   LIG    1       -2.664  -2.446   1.264  0.00  0.00    +0.250 C 
BRANCH  10  11
ATOM     11  C   LIG    1       -1.350  -1.663   1.255  0.00  0.00    +0.040 C 
BRANCH  11  12
ATOM     12  C   LIG    1       -1.293  -0.775   0.010  0.00  0.00    -0.030 C 
ATOM     13  C   LIG    1       -1.374  -1.649  -1.243  0.00  0.00    +0.040 C 
ATOM     14  C   LIG    1       -2.469   0.203   0.027  0.00  0.00    +0.040 C 
BRANCH  12  16
ATOM     15  C   LIG    1       -0.016   1.306   0.009  0.00  0.00    +0.040 C 
ATOM     16  C   LIG    1        0.002  -0.004   0.002  0.00  0.00    -0.060 C 
ENDBRANCH  12  16
ENDBRANCH  11  12
ENDBRANCH  10  11
ENDBRANCH   1  10
TORSDOF 5
ENDMDL
MODEL      615
REMARK  Name = ZINC000157295909
REMARK                            x       y       z     vdW  Elec       q    Type
REMARK                         _______ _______ _______ _____ _____    ______ ____
ROOT
ATOM      1  C   LIG    1        2.772  -2.118   1.290  0.00  0.00    +0.160 C 
ATOM      2  C   LIG    1        3.114  -2.949   0.051  0.00  0.00    +0.090 C 
ENDROOT
BRANCH   1   3
ATOM      3  N   LIG    1        1.396  -1.615   1.178  0.00  0.00    -0.510 N 
ATOM      4  H   LIG    1        0.768  -2.387   1.014  0.00  0.00    +0.430 HD
ATOM      5  H   LIG    1        1.138  -1.148   2.035  0.00  0.00    +0.420 HD
BRANCH   3   6
ATOM      6  C   LIG    1        1.311  -0.667   0.059  0.00  0.00    +0.200 C 
ATOM      7  C   LIG    1       -0.147  -0.252  -0.147  0.00  0.00    +0.090 C 
BRANCH   6   9
ATOM      8  C   LIG    1        3.136   0.883  -0.416  0.00  0.00    +0.120 C 
ATOM      9  C   LIG    1        2.141   0.552   0.369  0.00  0.00    -0.090 C 
ENDBRANCH   6   9
ENDBRANCH   3   6
ENDBRANCH   1   3
BRANCH   1  10
ATOM     10  C   LIG    1        2.896  -2.991   2.540  0.00  0.00    +0.050 C 
BRANCH  10  11
ATOM     11  C   LIG    1        2.677  -2.131   3.787  0.00  0.00    +0.010 C 
BRANCH  11  12
ATOM     12  C   LIG    1        2.801  -3.004   5.037  0.00  0.00    +0.020 C 
BRANCH  12  13
ATOM     13  C   LIG    1        2.582  -2.144   6.283  0.00  0.00    +0.000 C 
BRANCH  13  14
ATOM     14  C   LIG    1        2.706  -3.018   7.533  0.00  0.00    -0.010 C 
ATOM     15  C   LIG    1        2.487  -2.158   8.780  0.00  0.00    +0.000 C 
ENDBRANCH  13  14
ENDBRANCH  12  13
ENDBRANCH  11  12
ENDBRANCH  10  11
ENDBRANCH   1  10
TORSDOF 8
ENDMDL
MODEL      616
REMARK  Name = ZINC001194221022
REMARK                            x       y       z     vdW  Elec       q    Type
REMARK                         _______ _______ _______ _____ _____    ______ ____
ROOT
ATOM      1  N   LIG    1        4.204  -4.285   2.460  0.00  0.00    -0.380 N 
ATOM      2  H   LIG    1        4.407  -4.829   1.635  0.00  0.00    +0.420 HD
ENDROOT
BRANCH   1   3
ATOM      3  C   LIG    1        4.446  -5.104   3.656  0.00  0.00    +0.150 C 
ATOM      4  C   LIG    1        3.662  -6.437   3.568  0.00  0.00    +0.040 C 
ATOM      5  C   LIG    1        4.463  -7.367   4.513  0.00  0.00    +0.050 C 
ATOM      6  C   LIG    1        5.935  -6.977   4.268  0.00  0.00    +0.030 C 
ATOM      7  C   LIG    1        5.925  -5.538   3.724  0.00  0.00    +0.030 C 
ENDBRANCH   1   3
BRANCH   1   8
ATOM      8  C   LIG    1        5.074  -3.102   2.493  0.00  0.00    +0.240 C 
ATOM      9  C   LIG    1        4.731  -2.250   3.716  0.00  0.00    +0.070 C 
ENDBRANCH   1   8
BRANCH   1  10
ATOM     10  C   LIG    1        2.799  -3.859   2.434  0.00  0.00    +0.240 C 
BRANCH  10  11
ATOM     11  C   LIG    1        2.516  -3.113   1.129  0.00  0.00    +0.030 C 
BRANCH  11  12
ATOM     12  C   LIG    1        1.052  -2.669   1.101  0.00  0.00    +0.040 C 
BRANCH  12  13
ATOM     13  C   LIG    1        0.770  -1.923  -0.204  0.00  0.00    +0.050 C 
BRANCH  13  15
ATOM     14  C   LIG    1       -0.971  -0.225  -0.421  0.00  0.00    +0.020 C 
ATOM     15  C   LIG    1       -0.672  -1.486  -0.231  0.00  0.00    -0.060 C 
ENDBRANCH  13  15
ENDBRANCH  12  13
ENDBRANCH  11  12
ENDBRANCH  10  11
ENDBRANCH   1  10
TORSDOF 7
ENDMDL
MODEL      617
REMARK  Name = ZINC001195074018
REMARK                            x       y       z     vdW  Elec       q    Type
REMARK                         _______ _______ _______ _____ _____    ______ ____
ROOT
ATOM      1  N   LIG    1        3.985  -4.247   2.240  0.00  0.00    -0.380 N 
ATOM      2  C   LIG    1        3.984  -5.026   0.983  0.00  0.00    +0.160 C 
ATOM      3  C   LIG    1        4.654  -6.373   1.353  0.00  0.00    +0.080 C 
ATOM      4  C   LIG    1        4.110  -6.611   2.786  0.00  0.00    +0.080 C 
ATOM      5  C   LIG    1        2.551  -5.256   0.500  0.00  0.00    +0.080 C 
ATOM      6  C   LIG    1        4.044  -5.188   3.373  0.00  0.00    +0.050 C 
ATOM      7  C   LIG    1        2.792  -5.040   4.239  0.00  0.00    +0.090 C 
ATOM      8  C   LIG    1        5.295  -4.912   4.209  0.00  0.00    +0.100 C 
ATOM      9  H   LIG    1        4.790  -3.638   2.261  0.00  0.00    +0.420 HD
ENDROOT
BRANCH   1  10
ATOM     10  C   LIG    1        2.756  -3.446   2.326  0.00  0.00    +0.250 C 
BRANCH  10  11
ATOM     11  C   LIG    1        2.778  -2.361   1.248  0.00  0.00    +0.030 C 
BRANCH  11  12
ATOM     12  C   LIG    1        1.442  -1.615   1.248  0.00  0.00    +0.040 C 
BRANCH  12  13
ATOM     13  C   LIG    1        1.464  -0.529   0.170  0.00  0.00    +0.050 C 
BRANCH  13  15
ATOM     14  C   LIG    1        0.126   1.508   0.301  0.00  0.00    +0.020 C 
ATOM     15  C   LIG    1        0.148   0.205   0.170  0.00  0.00    -0.060 C 
ENDBRANCH  13  15
ENDBRANCH  12  13
ENDBRANCH  11  12
ENDBRANCH  10  11
ENDBRANCH   1  10
TORSDOF 5
ENDMDL
MODEL      618
REMARK  Name = ZINC001195074019
REMARK                            x       y       z     vdW  Elec       q    Type
REMARK                         _______ _______ _______ _____ _____    ______ ____
ROOT
ATOM      1  N   LIG    1        4.039  -4.159   2.305  0.00  0.00    -0.390 N 
ATOM      2  C   LIG    1        4.109  -5.026   1.110  0.00  0.00    +0.160 C 
ATOM      3  C   LIG    1        4.865  -6.293   1.584  0.00  0.00    +0.080 C 
ATOM      4  C   LIG    1        4.319  -6.462   3.026  0.00  0.00    +0.080 C 
ATOM      5  C   LIG    1        4.883  -4.329  -0.011  0.00  0.00    +0.090 C 
ATOM      6  C   LIG    1        4.148  -5.008   3.505  0.00  0.00    +0.050 C 
ATOM      7  C   LIG    1        2.877  -4.883   4.348  0.00  0.00    +0.090 C 
ATOM      8  C   LIG    1        5.366  -4.584   4.329  0.00  0.00    +0.100 C 
ATOM      9  H   LIG    1        4.800  -3.496   2.288  0.00  0.00    +0.420 HD
ENDROOT
BRANCH   1  10
ATOM     10  C   LIG    1        2.757  -3.441   2.321  0.00  0.00    +0.250 C 
BRANCH  10  11
ATOM     11  C   LIG    1        2.705  -2.464   1.145  0.00  0.00    +0.030 C 
BRANCH  11  12
ATOM     12  C   LIG    1        1.370  -1.717   1.161  0.00  0.00    +0.030 C 
BRANCH  12  13
ATOM     13  C   LIG    1        1.317  -0.740  -0.015  0.00  0.00    +0.050 C 
BRANCH  13  15
ATOM     14  C   LIG    1       -0.016   1.306   0.009  0.00  0.00    +0.020 C 
ATOM     15  C   LIG    1        0.002  -0.004   0.002  0.00  0.00    -0.060 C 
ENDBRANCH  13  15
ENDBRANCH  12  13
ENDBRANCH  11  12
ENDBRANCH  10  11
ENDBRANCH   1  10
TORSDOF 5
ENDMDL
MODEL      619
REMARK  Name = ZINC000662066071
REMARK                            x       y       z     vdW  Elec       q    Type
REMARK                         _______ _______ _______ _____ _____    ______ ____
ROOT
ATOM      1  N   LIG    1        4.612  -4.246   2.923  0.00  0.00    -0.470 N 
ATOM      2  H   LIG    1        5.319  -3.587   3.213  0.00  0.00    +0.430 HD
ATOM      3  H   LIG    1        4.963  -4.800   2.156  0.00  0.00    +0.430 HD
ENDROOT
BRANCH   1   4
ATOM      4  C   LIG    1        4.272  -5.126   4.048  0.00  0.00    -0.050 C 
ATOM      5  C   LIG    1        4.202  -6.630   3.773  0.00  0.00    +0.110 C 
ATOM      6  C   LIG    1        5.369  -6.053   4.576  0.00  0.00    +0.100 C 
BRANCH   4   7
ATOM      7  C   LIG    1        3.287  -4.547   5.065  0.00  0.00    +0.110 C 
BRANCH   7   8
ATOM      8  C   LIG    1        1.886  -4.507   4.452  0.00  0.00    -0.040 C 
ATOM      9  C   LIG    1        0.911  -3.876   5.448  0.00  0.00    +0.030 C 
ATOM     10  C   LIG    1        1.430  -5.930   4.125  0.00  0.00    +0.030 C 
ENDBRANCH   7   8
ENDBRANCH   4   7
ENDBRANCH   1   4
BRANCH   1  11
ATOM     11  C   LIG    1        3.411  -3.517   2.491  0.00  0.00    +0.260 C 
BRANCH  11  12
ATOM     12  C   LIG    1        3.766  -2.596   1.323  0.00  0.00    +0.030 C 
BRANCH  12  13
ATOM     13  C   LIG    1        2.515  -1.837   0.874  0.00  0.00    +0.050 C 
BRANCH  13  14
ATOM     14  C   LIG    1        2.870  -0.915  -0.295  0.00  0.00    +0.050 C 
BRANCH  14  16
ATOM     15  C   LIG    1        1.651   1.141  -0.791  0.00  0.00    +0.020 C 
ATOM     16  C   LIG    1        1.639  -0.168  -0.737  0.00  0.00    -0.060 C 
ENDBRANCH  14  16
ENDBRANCH  13  14
ENDBRANCH  12  13
ENDBRANCH  11  12
ENDBRANCH   1  11
TORSDOF 8
ENDMDL
MODEL      620
REMARK  Name = ZINC000126840359
REMARK                            x       y       z     vdW  Elec       q    Type
REMARK                         _______ _______ _______ _____ _____    ______ ____
ROOT
ATOM      1  N   LIG    1        2.783  -3.301  -0.060  0.00  0.00    -0.510 N 
ATOM      2  H   LIG    1        2.631  -2.729  -0.877  0.00  0.00    +0.420 HD
ATOM      3  H   LIG    1        2.075  -4.019  -0.017  0.00  0.00    +0.420 HD
ENDROOT
BRANCH   1   4
ATOM      4  C   LIG    1        2.705  -2.464   1.145  0.00  0.00    +0.170 C 
ATOM      5  C   LIG    1        2.810  -3.349   2.388  0.00  0.00    +0.090 C 
BRANCH   4   6
ATOM      6  C   LIG    1        1.370  -1.717   1.161  0.00  0.00    +0.060 C 
BRANCH   6   7
ATOM      7  C   LIG    1        1.317  -0.740  -0.015  0.00  0.00    +0.040 C 
BRANCH   7   9
ATOM      8  C   LIG    1       -0.016   1.306   0.009  0.00  0.00    +0.050 C 
ATOM      9  C   LIG    1        0.002  -0.004   0.002  0.00  0.00    -0.070 C 
ENDBRANCH   7   9
ENDBRANCH   6   7
ENDBRANCH   4   6
ENDBRANCH   1   4
BRANCH   1  10
ATOM     10  C   LIG    1        4.110  -3.925  -0.138  0.00  0.00    +0.260 C 
BRANCH  10  11
ATOM     11  C   LIG    1        4.191  -4.796  -1.393  0.00  0.00    -0.020 C 
ATOM     12  C   LIG    1        3.204  -5.959  -1.271  0.00  0.00    +0.050 C 
BRANCH  11  13
ATOM     13  C   LIG    1        5.611  -5.346  -1.541  0.00  0.00    -0.060 C 
ATOM     14  C   LIG    1        6.598  -4.184  -1.663  0.00  0.00    +0.020 C 
ATOM     15  C   LIG    1        5.692  -6.218  -2.796  0.00  0.00    +0.040 C 
ATOM     16  C   LIG    1        5.963  -6.187  -0.312  0.00  0.00    +0.030 C 
ENDBRANCH  11  13
ENDBRANCH  10  11
ENDBRANCH   1  10
TORSDOF 7
ENDMDL
MODEL      621
REMARK  Name = ZINC000126839889
REMARK                            x       y       z     vdW  Elec       q    Type
REMARK                         _______ _______ _______ _____ _____    ______ ____
ROOT
ATOM      1  N   LIG    1        2.783  -3.301  -0.060  0.00  0.00    -0.510 N 
ATOM      2  H   LIG    1        2.631  -2.729  -0.877  0.00  0.00    +0.420 HD
ATOM      3  H   LIG    1        2.075  -4.019  -0.017  0.00  0.00    +0.420 HD
ENDROOT
BRANCH   1   4
ATOM      4  C   LIG    1        2.705  -2.464   1.145  0.00  0.00    +0.170 C 
ATOM      5  C   LIG    1        2.810  -3.349   2.388  0.00  0.00    +0.090 C 
BRANCH   4   6
ATOM      6  C   LIG    1        1.370  -1.717   1.161  0.00  0.00    +0.060 C 
BRANCH   6   7
ATOM      7  C   LIG    1        1.317  -0.740  -0.015  0.00  0.00    +0.040 C 
BRANCH   7   9
ATOM      8  C   LIG    1       -0.016   1.306   0.009  0.00  0.00    +0.050 C 
ATOM      9  C   LIG    1        0.002  -0.004   0.002  0.00  0.00    -0.060 C 
ENDBRANCH   7   9
ENDBRANCH   6   7
ENDBRANCH   4   6
ENDBRANCH   1   4
BRANCH   1  10
ATOM     10  C   LIG    1        4.110  -3.925  -0.138  0.00  0.00    +0.250 C 
BRANCH  10  11
ATOM     11  C   LIG    1        4.191  -4.796  -1.393  0.00  0.00    -0.020 C 
ATOM     12  C   LIG    1        4.087  -3.911  -2.636  0.00  0.00    +0.050 C 
BRANCH  11  13
ATOM     13  C   LIG    1        5.527  -5.543  -1.409  0.00  0.00    -0.060 C 
ATOM     14  C   LIG    1        6.676  -4.534  -1.415  0.00  0.00    +0.030 C 
ATOM     15  C   LIG    1        5.608  -6.415  -2.664  0.00  0.00    +0.040 C 
ATOM     16  C   LIG    1        5.631  -6.429  -0.166  0.00  0.00    +0.030 C 
ENDBRANCH  11  13
ENDBRANCH  10  11
ENDBRANCH   1  10
TORSDOF 7
ENDMDL
MODEL      622
REMARK  Name = ZINC000126840120
REMARK                            x       y       z     vdW  Elec       q    Type
REMARK                         _______ _______ _______ _____ _____    ______ ____
ROOT
ATOM      1  N   LIG    1        3.800  -1.514   1.380  0.00  0.00    -0.510 N 
ATOM      2  H   LIG    1        3.720  -1.132   2.310  0.00  0.00    +0.420 HD
ATOM      3  H   LIG    1        3.749  -0.767   0.704  0.00  0.00    +0.420 HD
ENDROOT
BRANCH   1   4
ATOM      4  C   LIG    1        2.705  -2.464   1.145  0.00  0.00    +0.170 C 
ATOM      5  C   LIG    1        2.708  -3.528   2.244  0.00  0.00    +0.090 C 
BRANCH   4   6
ATOM      6  C   LIG    1        1.370  -1.717   1.161  0.00  0.00    +0.070 C 
BRANCH   6   7
ATOM      7  C   LIG    1        1.317  -0.740  -0.015  0.00  0.00    +0.050 C 
BRANCH   7   9
ATOM      8  C   LIG    1       -0.016   1.306   0.009  0.00  0.00    +0.040 C 
ATOM      9  C   LIG    1        0.002  -0.004   0.002  0.00  0.00    -0.050 C 
ENDBRANCH   7   9
ENDBRANCH   6   7
ENDBRANCH   4   6
ENDBRANCH   1   4
BRANCH   1  10
ATOM     10  C   LIG    1        5.088  -2.208   1.245  0.00  0.00    +0.250 C 
BRANCH  10  11
ATOM     11  C   LIG    1        6.229  -1.219   1.490  0.00  0.00    -0.020 C 
ATOM     12  C   LIG    1        6.226  -0.155   0.391  0.00  0.00    +0.050 C 
BRANCH  11  13
ATOM     13  C   LIG    1        7.564  -1.966   1.473  0.00  0.00    -0.060 C 
ATOM     14  C   LIG    1        7.567  -3.030   2.573  0.00  0.00    +0.030 C 
ATOM     15  C   LIG    1        8.705  -0.976   1.718  0.00  0.00    +0.040 C 
ATOM     16  C   LIG    1        7.755  -2.638   0.112  0.00  0.00    +0.030 C 
ENDBRANCH  11  13
ENDBRANCH  10  11
ENDBRANCH   1  10
TORSDOF 7
ENDMDL
MODEL      623
REMARK  Name = ZINC000126839662
REMARK                            x       y       z     vdW  Elec       q    Type
REMARK                         _______ _______ _______ _____ _____    ______ ____
ROOT
ATOM      1  N   LIG    1        3.800  -1.514   1.380  0.00  0.00    -0.510 N 
ATOM      2  H   LIG    1        3.720  -1.132   2.310  0.00  0.00    +0.420 HD
ATOM      3  H   LIG    1        3.749  -0.767   0.704  0.00  0.00    +0.420 HD
ENDROOT
BRANCH   1   4
ATOM      4  C   LIG    1        2.705  -2.464   1.145  0.00  0.00    +0.170 C 
ATOM      5  C   LIG    1        2.708  -3.528   2.244  0.00  0.00    +0.090 C 
BRANCH   4   6
ATOM      6  C   LIG    1        1.370  -1.717   1.161  0.00  0.00    +0.070 C 
BRANCH   6   7
ATOM      7  C   LIG    1        1.317  -0.740  -0.015  0.00  0.00    +0.050 C 
BRANCH   7   9
ATOM      8  C   LIG    1       -0.016   1.306   0.009  0.00  0.00    +0.040 C 
ATOM      9  C   LIG    1        0.002  -0.004   0.002  0.00  0.00    -0.050 C 
ENDBRANCH   7   9
ENDBRANCH   6   7
ENDBRANCH   4   6
ENDBRANCH   1   4
BRANCH   1  10
ATOM     10  C   LIG    1        5.088  -2.208   1.245  0.00  0.00    +0.260 C 
BRANCH  10  11
ATOM     11  C   LIG    1        6.229  -1.219   1.490  0.00  0.00    -0.020 C 
ATOM     12  C   LIG    1        6.181  -0.733   2.940  0.00  0.00    +0.050 C 
BRANCH  11  13
ATOM     13  C   LIG    1        7.569  -1.910   1.228  0.00  0.00    -0.060 C 
ATOM     14  C   LIG    1        7.719  -3.105   2.171  0.00  0.00    +0.030 C 
ATOM     15  C   LIG    1        8.710  -0.920   1.473  0.00  0.00    +0.040 C 
ATOM     16  C   LIG    1        7.617  -2.395  -0.222  0.00  0.00    +0.020 C 
ENDBRANCH  11  13
ENDBRANCH  10  11
ENDBRANCH   1  10
TORSDOF 7
ENDMDL
MODEL      624
REMARK  Name = ZINC001195497370
REMARK                            x       y       z     vdW  Elec       q    Type
REMARK                         _______ _______ _______ _____ _____    ______ ____
ROOT
ATOM      1  N   LIG    1       -3.921  -4.241  -2.347  0.00  0.00    -0.390 N 
ATOM      2  C   LIG    1       -5.042  -3.318  -2.571  0.00  0.00    +0.300 C 
ATOM      3  H   LIG    1       -4.035  -4.697  -1.454  0.00  0.00    +0.420 HD
ENDROOT
BRANCH   1   4
ATOM      4  C   LIG    1       -2.659  -3.489  -2.355  0.00  0.00    +0.250 C 
BRANCH   4   5
ATOM      5  C   LIG    1       -2.633  -2.524  -1.168  0.00  0.00    +0.030 C 
BRANCH   5   6
ATOM      6  C   LIG    1       -1.319  -1.741  -1.176  0.00  0.00    +0.040 C 
BRANCH   6   7
ATOM      7  C   LIG    1       -1.293  -0.775   0.010  0.00  0.00    +0.050 C 
BRANCH   7   9
ATOM      8  C   LIG    1       -0.016   1.306   0.009  0.00  0.00    +0.020 C 
ATOM      9  C   LIG    1        0.002  -0.004   0.002  0.00  0.00    -0.060 C 
ENDBRANCH   7   9
ENDBRANCH   6   7
ENDBRANCH   5   6
ENDBRANCH   4   5
ENDBRANCH   1   4
BRANCH   1  10
ATOM     10  C   LIG    1       -3.897  -5.251  -3.413  0.00  0.00    +0.240 C 
BRANCH  10  11
ATOM     11  C   LIG    1       -5.156  -6.115  -3.327  0.00  0.00    +0.040 C 
BRANCH  11  12
ATOM     12  C   LIG    1       -5.130  -7.167  -4.438  0.00  0.00    -0.060 C 
ATOM     13  C   LIG    1       -5.083  -6.470  -5.799  0.00  0.00    +0.030 C 
ATOM     14  C   LIG    1       -6.390  -8.031  -4.351  0.00  0.00    +0.040 C 
ATOM     15  C   LIG    1       -3.892  -8.051  -4.274  0.00  0.00    +0.030 C 
ENDBRANCH  11  12
ENDBRANCH  10  11
ENDBRANCH   1  10
TORSDOF 8
ENDMDL
MODEL      625
REMARK  Name = ZINC000161659055
REMARK                            x       y       z     vdW  Elec       q    Type
REMARK                         _______ _______ _______ _____ _____    ______ ____
ROOT
ATOM      1  N   LIG    1       -1.405  -0.837  -2.911  0.00  0.00    -0.500 N 
ATOM      2  H   LIG    1       -0.663  -0.174  -3.077  0.00  0.00    +0.420 HD
ATOM      3  H   LIG    1       -2.288  -0.429  -3.181  0.00  0.00    +0.420 HD
ENDROOT
BRANCH   1   4
ATOM      4  C   LIG    1       -1.442  -1.184  -1.484  0.00  0.00    +0.170 C 
ATOM      5  C   LIG    1       -2.585  -2.169  -1.228  0.00  0.00    +0.080 C 
BRANCH   4   6
ATOM      6  C   LIG    1       -1.666   0.083  -0.657  0.00  0.00    +0.100 C 
BRANCH   6   8
ATOM      7  C   LIG    1       -0.658   2.236  -1.214  0.00  0.00    +0.060 C 
ATOM      8  C   LIG    1       -0.481   1.001  -0.814  0.00  0.00    -0.090 C 
ENDBRANCH   6   8
ENDBRANCH   4   6
ENDBRANCH   1   4
BRANCH   1   9
ATOM      9  C   LIG    1       -1.164  -2.050  -3.704  0.00  0.00    +0.160 C 
BRANCH   9  10
ATOM     10  C   LIG    1        0.237  -2.586  -3.404  0.00  0.00    +0.040 C 
ATOM     11  C   LIG    1        0.167  -3.574  -2.238  0.00  0.00    +0.030 C 
ENDBRANCH   9  10
BRANCH   9  12
ATOM     12  C   LIG    1       -1.274  -1.717  -5.193  0.00  0.00    +0.050 C 
BRANCH  12  13
ATOM     13  C   LIG    1       -2.710  -1.300  -5.518  0.00  0.00    +0.010 C 
BRANCH  13  14
ATOM     14  C   LIG    1       -2.821  -0.966  -7.007  0.00  0.00    +0.010 C 
ATOM     15  C   LIG    1       -4.256  -0.550  -7.331  0.00  0.00    +0.010 C 
ENDBRANCH  13  14
ENDBRANCH  12  13
ENDBRANCH   9  12
ENDBRANCH   1   9
TORSDOF 8
ENDMDL
MODEL      626
REMARK  Name = ZINC000161659183
REMARK                            x       y       z     vdW  Elec       q    Type
REMARK                         _______ _______ _______ _____ _____    ______ ____
ROOT
ATOM      1  N   LIG    1       -1.634  -1.163  -2.324  0.00  0.00    -0.500 N 
ATOM      2  H   LIG    1       -2.492  -0.709  -2.600  0.00  0.00    +0.420 HD
ATOM      3  H   LIG    1       -1.765  -1.614  -1.430  0.00  0.00    +0.420 HD
ENDROOT
BRANCH   1   4
ATOM      4  C   LIG    1       -0.563  -0.165  -2.216  0.00  0.00    +0.160 C 
ATOM      5  C   LIG    1        0.726  -0.847  -1.753  0.00  0.00    +0.090 C 
BRANCH   4   6
ATOM      6  C   LIG    1       -0.965   0.907  -1.201  0.00  0.00    +0.100 C 
BRANCH   6   8
ATOM      7  C   LIG    1       -3.246   1.750  -0.984  0.00  0.00    +0.060 C 
ATOM      8  C   LIG    1       -2.163   1.662  -1.716  0.00  0.00    -0.090 C 
ENDBRANCH   6   8
ENDBRANCH   4   6
ENDBRANCH   1   4
BRANCH   1   9
ATOM      9  C   LIG    1       -1.268  -2.169  -3.330  0.00  0.00    +0.160 C 
BRANCH   9  10
ATOM     10  C   LIG    1       -2.334  -3.265  -3.369  0.00  0.00    +0.050 C 
ATOM     11  C   LIG    1       -2.385  -3.975  -2.014  0.00  0.00    +0.020 C 
ENDBRANCH   9  10
BRANCH   9  12
ATOM     12  C   LIG    1       -1.171  -1.503  -4.704  0.00  0.00    +0.060 C 
BRANCH  12  13
ATOM     13  C   LIG    1        0.247  -0.967  -4.913  0.00  0.00    +0.010 C 
BRANCH  13  14
ATOM     14  C   LIG    1        0.308  -0.182  -6.225  0.00  0.00    +0.000 C 
ATOM     15  C   LIG    1        1.726   0.354  -6.434  0.00  0.00    +0.010 C 
ENDBRANCH  13  14
ENDBRANCH  12  13
ENDBRANCH   9  12
ENDBRANCH   1   9
TORSDOF 8
ENDMDL
MODEL      627
REMARK  Name = ZINC000161652102
REMARK                            x       y       z     vdW  Elec       q    Type
REMARK                         _______ _______ _______ _____ _____    ______ ____
ROOT
ATOM      1  N   LIG    1       -0.264  -2.750  -1.010  0.00  0.00    -0.510 N 
ATOM      2  H   LIG    1       -0.466  -3.317  -0.200  0.00  0.00    +0.420 HD
ATOM      3  H   LIG    1        0.625  -2.290  -0.885  0.00  0.00    +0.420 HD
ENDROOT
BRANCH   1   4
ATOM      4  C   LIG    1       -0.210  -3.603  -2.204  0.00  0.00    +0.170 C 
ATOM      5  C   LIG    1        0.218  -2.766  -3.411  0.00  0.00    +0.040 C 
ATOM      6  C   LIG    1        0.274  -3.655  -4.655  0.00  0.00    +0.030 C 
ATOM      7  C   LIG    1        1.285  -4.782  -4.431  0.00  0.00    +0.020 C 
ATOM      8  C   LIG    1        0.856  -5.619  -3.225  0.00  0.00    +0.050 C 
ATOM      9  C   LIG    1        0.800  -4.730  -1.981  0.00  0.00    -0.080 C 
ATOM     10  C   LIG    1        0.372  -5.568  -0.774  0.00  0.00    +0.040 C 
ATOM     11  C   LIG    1        2.183  -4.130  -1.720  0.00  0.00    +0.050 C 
ENDBRANCH   1   4
BRANCH   1  12
ATOM     12  C   LIG    1       -1.319  -1.741  -1.176  0.00  0.00    +0.170 C 
ATOM     13  C   LIG    1       -2.682  -2.433  -1.241  0.00  0.00    +0.090 C 
BRANCH  12  14
ATOM     14  C   LIG    1       -1.293  -0.775   0.010  0.00  0.00    +0.090 C 
BRANCH  14  16
ATOM     15  C   LIG    1       -0.016   1.306   0.009  0.00  0.00    +0.090 C 
ATOM     16  C   LIG    1        0.002  -0.004   0.002  0.00  0.00    -0.110 C 
ENDBRANCH  14  16
ENDBRANCH  12  14
ENDBRANCH   1  12
TORSDOF 4
ENDMDL
MODEL      628
REMARK  Name = ZINC000161651995
REMARK                            x       y       z     vdW  Elec       q    Type
REMARK                         _______ _______ _______ _____ _____    ______ ____
ROOT
ATOM      1  N   LIG    1       -1.330  -0.975  -2.430  0.00  0.00    -0.510 N 
ATOM      2  H   LIG    1       -0.545  -0.341  -2.445  0.00  0.00    +0.420 HD
ATOM      3  H   LIG    1       -2.189  -0.449  -2.495  0.00  0.00    +0.420 HD
ENDROOT
BRANCH   1   4
ATOM      4  C   LIG    1       -1.234  -1.899  -3.569  0.00  0.00    +0.170 C 
ATOM      5  C   LIG    1        0.122  -2.606  -3.539  0.00  0.00    +0.040 C 
ATOM      6  C   LIG    1        0.222  -3.568  -4.724  0.00  0.00    +0.030 C 
ATOM      7  C   LIG    1        0.084  -2.784  -6.030  0.00  0.00    +0.020 C 
ATOM      8  C   LIG    1       -1.272  -2.076  -6.061  0.00  0.00    +0.050 C 
ATOM      9  C   LIG    1       -1.372  -1.114  -4.875  0.00  0.00    -0.080 C 
ATOM     10  C   LIG    1       -0.252  -0.075  -4.966  0.00  0.00    +0.040 C 
ATOM     11  C   LIG    1       -2.728  -0.407  -4.905  0.00  0.00    +0.040 C 
ENDBRANCH   1   4
BRANCH   1  12
ATOM     12  C   LIG    1       -1.319  -1.741  -1.176  0.00  0.00    +0.170 C 
ATOM     13  C   LIG    1       -2.575  -2.611  -1.099  0.00  0.00    +0.090 C 
BRANCH  12  14
ATOM     14  C   LIG    1       -1.293  -0.775   0.010  0.00  0.00    +0.100 C 
BRANCH  14  16
ATOM     15  C   LIG    1       -0.016   1.306   0.009  0.00  0.00    +0.060 C 
ATOM     16  C   LIG    1        0.002  -0.004   0.002  0.00  0.00    -0.090 C 
ENDBRANCH  14  16
ENDBRANCH  12  14
ENDBRANCH   1  12
TORSDOF 4
ENDMDL
MODEL      629
REMARK  Name = ZINC000161658927
REMARK                            x       y       z     vdW  Elec       q    Type
REMARK                         _______ _______ _______ _____ _____    ______ ____
ROOT
ATOM      1  N   LIG    1       -0.737  -3.309  -1.170  0.00  0.00    -0.510 N 
ATOM      2  H   LIG    1       -0.812  -4.024  -0.462  0.00  0.00    +0.420 HD
ATOM      3  H   LIG    1        0.041  -2.704  -0.955  0.00  0.00    +0.420 HD
ENDROOT
BRANCH   1   4
ATOM      4  C   LIG    1       -1.976  -2.521  -1.202  0.00  0.00    +0.170 C 
ATOM      5  C   LIG    1       -3.173  -3.459  -1.374  0.00  0.00    +0.090 C 
BRANCH   4   6
ATOM      6  C   LIG    1       -2.121  -1.744   0.108  0.00  0.00    +0.090 C 
BRANCH   6   8
ATOM      7  C   LIG    1       -1.289   0.532   0.408  0.00  0.00    +0.090 C 
ATOM      8  C   LIG    1       -1.008  -0.733   0.218  0.00  0.00    -0.110 C 
ENDBRANCH   6   8
ENDBRANCH   4   6
ENDBRANCH   1   4
BRANCH   1   9
ATOM      9  C   LIG    1       -0.522  -3.937  -2.480  0.00  0.00    +0.160 C 
BRANCH   9  10
ATOM     10  C   LIG    1        0.192  -2.952  -3.407  0.00  0.00    +0.060 C 
ATOM     11  C   LIG    1       -0.729  -1.764  -3.696  0.00  0.00    +0.030 C 
ENDBRANCH   9  10
BRANCH   9  12
ATOM     12  C   LIG    1        0.339  -5.191  -2.309  0.00  0.00    +0.050 C 
BRANCH  12  13
ATOM     13  C   LIG    1       -0.428  -6.227  -1.485  0.00  0.00    +0.010 C 
BRANCH  13  14
ATOM     14  C   LIG    1        0.432  -7.481  -1.314  0.00  0.00    +0.010 C 
ATOM     15  C   LIG    1       -0.335  -8.517  -0.490  0.00  0.00    +0.010 C 
ENDBRANCH  13  14
ENDBRANCH  12  13
ENDBRANCH   9  12
ENDBRANCH   1   9
TORSDOF 8
ENDMDL
MODEL      630
REMARK  Name = ZINC000161682738
REMARK                            x       y       z     vdW  Elec       q    Type
REMARK                         _______ _______ _______ _____ _____    ______ ____
ROOT
ATOM      1  N   LIG    1       -0.265  -3.015  -0.791  0.00  0.00    -0.510 N 
ATOM      2  H   LIG    1       -1.213  -2.702  -0.648  0.00  0.00    +0.420 HD
ATOM      3  H   LIG    1       -0.011  -3.662  -0.059  0.00  0.00    +0.420 HD
ENDROOT
BRANCH   1   4
ATOM      4  C   LIG    1        0.642  -1.860  -0.760  0.00  0.00    +0.160 C 
ATOM      5  C   LIG    1        0.156  -0.803  -1.753  0.00  0.00    +0.090 C 
BRANCH   4   6
ATOM      6  C   LIG    1        0.662  -1.264   0.650  0.00  0.00    +0.090 C 
BRANCH   6   8
ATOM      7  C   LIG    1        2.278  -1.926   2.356  0.00  0.00    +0.090 C 
ATOM      8  C   LIG    1        1.256  -2.263   1.609  0.00  0.00    -0.110 C 
ENDBRANCH   6   8
ENDBRANCH   4   6
ENDBRANCH   1   4
BRANCH   1   9
ATOM      9  C   LIG    1       -0.160  -3.685  -2.094  0.00  0.00    +0.160 C 
BRANCH   9  10
ATOM     10  C   LIG    1       -1.489  -4.366  -2.425  0.00  0.00    +0.050 C 
ATOM     11  C   LIG    1       -2.572  -3.303  -2.624  0.00  0.00    +0.030 C 
ENDBRANCH   9  10
BRANCH   9  12
ATOM     12  C   LIG    1        0.952  -4.734  -2.040  0.00  0.00    +0.060 C 
BRANCH  12  13
ATOM     13  C   LIG    1        2.303  -4.038  -1.862  0.00  0.00    -0.040 C 
ATOM     14  C   LIG    1        2.586  -3.156  -3.080  0.00  0.00    +0.020 C 
BRANCH  13  15
ATOM     15  C   LIG    1        3.405  -5.090  -1.726  0.00  0.00    +0.020 C 
ATOM     16  C   LIG    1        4.736  -4.398  -1.424  0.00  0.00    +0.010 C 
ENDBRANCH  13  15
ENDBRANCH  12  13
ENDBRANCH   9  12
ENDBRANCH   1   9
TORSDOF 8
ENDMDL
MODEL      631
REMARK  Name = ZINC000161682978
REMARK                            x       y       z     vdW  Elec       q    Type
REMARK                         _______ _______ _______ _____ _____    ______ ____
ROOT
ATOM      1  N   LIG    1       -0.138  -2.805  -1.292  0.00  0.00    -0.500 N 
ATOM      2  H   LIG    1       -0.182  -3.266  -0.396  0.00  0.00    +0.420 HD
ATOM      3  H   LIG    1        0.747  -2.328  -1.382  0.00  0.00    +0.420 HD
ENDROOT
BRANCH   1   4
ATOM      4  C   LIG    1       -1.233  -1.832  -1.397  0.00  0.00    +0.160 C 
ATOM      5  C   LIG    1       -2.561  -2.522  -1.078  0.00  0.00    +0.090 C 
BRANCH   4   6
ATOM      6  C   LIG    1       -0.999  -0.692  -0.403  0.00  0.00    +0.090 C 
BRANCH   6   8
ATOM      7  C   LIG    1        0.193   1.359  -0.981  0.00  0.00    +0.090 C 
ATOM      8  C   LIG    1        0.246   0.064  -0.789  0.00  0.00    -0.110 C 
ENDBRANCH   6   8
ENDBRANCH   4   6
ENDBRANCH   1   4
BRANCH   1   9
ATOM      9  C   LIG    1       -0.266  -3.803  -2.363  0.00  0.00    +0.160 C 
BRANCH   9  10
ATOM     10  C   LIG    1        0.417  -3.283  -3.629  0.00  0.00    +0.050 C 
ATOM     11  C   LIG    1       -0.318  -2.038  -4.130  0.00  0.00    +0.030 C 
ENDBRANCH   9  10
BRANCH   9  12
ATOM     12  C   LIG    1        0.399  -5.109  -1.925  0.00  0.00    +0.040 C 
BRANCH  12  13
ATOM     13  C   LIG    1        0.196  -6.173  -3.006  0.00  0.00    -0.010 C 
ATOM     14  C   LIG    1       -1.294  -6.500  -3.125  0.00  0.00    +0.020 C 
BRANCH  13  15
ATOM     15  C   LIG    1        0.966  -7.439  -2.627  0.00  0.00    +0.020 C 
ATOM     16  C   LIG    1        0.865  -8.457  -3.765  0.00  0.00    +0.020 C 
ENDBRANCH  13  15
ENDBRANCH  12  13
ENDBRANCH   9  12
ENDBRANCH   1   9
TORSDOF 8
ENDMDL
MODEL      632
REMARK  Name = ZINC000161683103
REMARK                            x       y       z     vdW  Elec       q    Type
REMARK                         _______ _______ _______ _____ _____    ______ ____
ROOT
ATOM      1  N   LIG    1       -0.756  -3.329  -1.181  0.00  0.00    -0.510 N 
ATOM      2  H   LIG    1       -0.847  -4.051  -0.482  0.00  0.00    +0.420 HD
ATOM      3  H   LIG    1        0.025  -2.733  -0.950  0.00  0.00    +0.420 HD
ENDROOT
BRANCH   1   4
ATOM      4  C   LIG    1       -1.987  -2.530  -1.222  0.00  0.00    +0.160 C 
ATOM      5  C   LIG    1       -3.190  -3.455  -1.421  0.00  0.00    +0.090 C 
BRANCH   4   6
ATOM      6  C   LIG    1       -2.144  -1.766   0.094  0.00  0.00    +0.090 C 
BRANCH   6   8
ATOM      7  C   LIG    1       -1.296   0.499   0.432  0.00  0.00    +0.090 C 
ATOM      8  C   LIG    1       -1.024  -0.767   0.232  0.00  0.00    -0.110 C 
ENDBRANCH   6   8
ENDBRANCH   4   6
ENDBRANCH   1   4
BRANCH   1   9
ATOM      9  C   LIG    1       -0.528  -3.946  -2.495  0.00  0.00    +0.160 C 
BRANCH   9  10
ATOM     10  C   LIG    1        0.192  -2.952  -3.407  0.00  0.00    +0.060 C 
ATOM     11  C   LIG    1       -0.729  -1.764  -3.696  0.00  0.00    +0.040 C 
ENDBRANCH   9  10
BRANCH   9  12
ATOM     12  C   LIG    1        0.332  -5.200  -2.328  0.00  0.00    +0.060 C 
BRANCH  12  13
ATOM     13  C   LIG    1       -0.441  -6.244  -1.518  0.00  0.00    -0.040 C 
ATOM     14  C   LIG    1       -1.668  -6.698  -2.311  0.00  0.00    +0.030 C 
BRANCH  13  15
ATOM     15  C   LIG    1        0.463  -7.448  -1.244  0.00  0.00    +0.020 C 
ATOM     16  C   LIG    1       -0.266  -8.436  -0.331  0.00  0.00    +0.010 C 
ENDBRANCH  13  15
ENDBRANCH  12  13
ENDBRANCH   9  12
ENDBRANCH   1   9
TORSDOF 8
ENDMDL
MODEL      633
REMARK  Name = ZINC000161652253
REMARK                            x       y       z     vdW  Elec       q    Type
REMARK                         _______ _______ _______ _____ _____    ______ ____
ROOT
ATOM      1  N   LIG    1       -1.197  -0.974  -2.551  0.00  0.00    -0.500 N 
ATOM      2  H   LIG    1       -0.355  -0.422  -2.475  0.00  0.00    +0.420 HD
ATOM      3  H   LIG    1       -1.975  -0.370  -2.771  0.00  0.00    +0.420 HD
ENDROOT
BRANCH   1   4
ATOM      4  C   LIG    1       -1.034  -1.971  -3.617  0.00  0.00    +0.160 C 
ATOM      5  C   LIG    1       -2.328  -2.774  -3.765  0.00  0.00    +0.040 C 
ATOM      6  C   LIG    1       -2.159  -3.814  -4.875  0.00  0.00    +0.030 C 
ATOM      7  C   LIG    1       -1.845  -3.105  -6.194  0.00  0.00    +0.020 C 
ATOM      8  C   LIG    1       -0.551  -2.302  -6.046  0.00  0.00    +0.040 C 
ATOM      9  C   LIG    1       -0.720  -1.262  -4.936  0.00  0.00    -0.070 C 
ATOM     10  C   LIG    1        0.574  -0.459  -4.787  0.00  0.00    +0.050 C 
ATOM     11  C   LIG    1       -1.869  -0.317  -5.293  0.00  0.00    +0.040 C 
ENDBRANCH   1   4
BRANCH   1  12
ATOM     12  C   LIG    1       -1.451  -1.657  -1.276  0.00  0.00    +0.160 C 
ATOM     13  C   LIG    1       -1.913  -0.635  -0.234  0.00  0.00    +0.090 C 
BRANCH  12  14
ATOM     14  C   LIG    1       -0.166  -2.332  -0.793  0.00  0.00    +0.100 C 
BRANCH  14  16
ATOM     15  C   LIG    1        1.362  -3.554  -2.253  0.00  0.00    +0.050 C 
ATOM     16  C   LIG    1        0.173  -3.479  -1.709  0.00  0.00    -0.060 C 
ENDBRANCH  14  16
ENDBRANCH  12  14
ENDBRANCH   1  12
TORSDOF 4
ENDMDL
MODEL      634
REMARK  Name = ZINC001196198254
REMARK                            x       y       z     vdW  Elec       q    Type
REMARK                         _______ _______ _______ _____ _____    ______ ____
ROOT
ATOM      1  N   LIG    1        2.113  -1.752  -0.094  0.00  0.00    -0.380 N 
ATOM      2  H   LIG    1        1.496  -2.519  -0.316  0.00  0.00    +0.420 HD
ENDROOT
BRANCH   1   3
ATOM      3  C   LIG    1        1.579  -1.011   1.056  0.00  0.00    +0.060 C 
ATOM      4  C   LIG    1        2.730  -0.338   1.807  0.00  0.00    +0.090 C 
ATOM      5  C   LIG    1        0.855  -1.978   1.995  0.00  0.00    +0.080 C 
ATOM      6  C   LIG    1        0.598   0.055   0.566  0.00  0.00    +0.080 C 
ENDBRANCH   1   3
BRANCH   1   7
ATOM      7  C   LIG    1        2.212  -0.854  -1.252  0.00  0.00    +0.290 C 
BRANCH   7   9
ATOM      8  C   LIG    1        0.358   0.545  -2.006  0.00  0.00    +0.120 C 
ATOM      9  C   LIG    1        0.846  -0.662  -1.858  0.00  0.00    -0.100 C 
ENDBRANCH   7   9
ENDBRANCH   1   7
BRANCH   1  10
ATOM     10  C   LIG    1        3.445  -2.275   0.235  0.00  0.00    +0.260 C 
BRANCH  10  11
ATOM     11  C   LIG    1        3.327  -3.294   1.371  0.00  0.00    +0.060 C 
BRANCH  11  12
ATOM     12  C   LIG    1        4.663  -3.952   1.597  0.00  0.00    -0.080 C 
ATOM     13  C   LIG    1        4.765  -5.258   1.561  0.00  0.00    -0.090 C 
ATOM     14  C   LIG    1        6.106  -5.915   1.763  0.00  0.00    +0.100 C 
ATOM     15  C   LIG    1        3.541  -6.102   1.318  0.00  0.00    +0.070 C 
ENDBRANCH  11  12
ENDBRANCH  10  11
ENDBRANCH   1  10
TORSDOF 6
ENDMDL
MODEL      635
REMARK  Name = ZINC001198414106
REMARK                            x       y       z     vdW  Elec       q    Type
REMARK                         _______ _______ _______ _____ _____    ______ ____
ROOT
ATOM      1  N   LIG    1        2.212  -6.013  -3.799  0.00  0.00    -0.390 N 
ATOM      2  C   LIG    1        3.024  -6.498  -2.675  0.00  0.00    +0.300 C 
ATOM      3  H   LIG    1        1.270  -6.362  -3.709  0.00  0.00    +0.420 HD
ENDROOT
BRANCH   1   4
ATOM      4  C   LIG    1        2.192  -4.544  -3.791  0.00  0.00    +0.250 C 
BRANCH   4   5
ATOM      5  C   LIG    1        1.476  -4.051  -2.532  0.00  0.00    +0.030 C 
BRANCH   5   6
ATOM      6  C   LIG    1        1.455  -2.521  -2.524  0.00  0.00    +0.020 C 
BRANCH   6   7
ATOM      7  C   LIG    1        0.739  -2.027  -1.265  0.00  0.00    +0.020 C 
BRANCH   7   8
ATOM      8  C   LIG    1        0.718  -0.497  -1.257  0.00  0.00    +0.000 C 
BRANCH   8  10
ATOM      9  C   LIG    1       -0.019   1.526   0.010  0.00  0.00    +0.000 C 
ATOM     10  C   LIG    1        0.002  -0.004   0.002  0.00  0.00    -0.010 C 
ENDBRANCH   8  10
ENDBRANCH   7   8
ENDBRANCH   6   7
ENDBRANCH   5   6
ENDBRANCH   4   5
ENDBRANCH   1   4
BRANCH   1  11
ATOM     11  C   LIG    1        2.792  -6.488  -5.063  0.00  0.00    +0.260 C 
BRANCH  11  12
ATOM     12  C   LIG    1        2.699  -8.014  -5.125  0.00  0.00    -0.040 C 
ATOM     13  C   LIG    1        1.373  -8.527  -5.712  0.00  0.00    +0.020 C 
ATOM     14  C   LIG    1        2.202  -9.597  -6.442  0.00  0.00    +0.030 C 
ATOM     15  C   LIG    1        3.389  -8.623  -6.356  0.00  0.00    +0.040 C 
ENDBRANCH  11  12
ENDBRANCH   1  11
TORSDOF 8
ENDMDL
MODEL      636
REMARK  Name = ZINC001198458587
REMARK                            x       y       z     vdW  Elec       q    Type
REMARK                         _______ _______ _______ _____ _____    ______ ____
ROOT
ATOM      1  N   LIG    1        3.539  -4.281   2.006  0.00  0.00    -0.390 N 
ATOM      2  H   LIG    1        3.337  -4.121   2.982  0.00  0.00    +0.420 HD
ENDROOT
BRANCH   1   3
ATOM      3  C   LIG    1        3.155  -5.652   1.646  0.00  0.00    +0.240 C 
ATOM      4  C   LIG    1        3.816  -6.638   2.611  0.00  0.00    +0.080 C 
ENDBRANCH   1   3
BRANCH   1   5
ATOM      5  C   LIG    1        2.779  -3.328   1.186  0.00  0.00    +0.240 C 
BRANCH   5   6
ATOM      6  C   LIG    1        1.292  -3.434   1.528  0.00  0.00    +0.040 C 
BRANCH   6   7
ATOM      7  C   LIG    1        0.500  -2.442   0.674  0.00  0.00    +0.070 C 
BRANCH   7   9
ATOM      8  C   LIG    1       -1.631  -1.479   1.377  0.00  0.00    +0.030 C 
ATOM      9  C   LIG    1       -0.965  -2.546   1.010  0.00  0.00    -0.070 C 
ENDBRANCH   7   9
ENDBRANCH   6   7
ENDBRANCH   5   6
ENDBRANCH   1   5
BRANCH   1  10
ATOM     10  C   LIG    1        4.976  -4.097   1.766  0.00  0.00    +0.250 C 
BRANCH  10  11
ATOM     11  C   LIG    1        5.404  -2.715   2.266  0.00  0.00    +0.070 C 
BRANCH  11  12
ATOM     12  C   LIG    1        6.899  -2.578   2.146  0.00  0.00    -0.080 C 
ATOM     13  C   LIG    1        7.612  -2.233   3.190  0.00  0.00    -0.080 C 
ATOM     14  C   LIG    1        9.117  -2.229   3.107  0.00  0.00    +0.090 C 
ATOM     15  C   LIG    1        6.926  -1.841   4.473  0.00  0.00    +0.070 C 
ENDBRANCH  11  12
ENDBRANCH  10  11
ENDBRANCH   1  10
TORSDOF 8
ENDMDL
MODEL      637
REMARK  Name = ZINC000648454013
REMARK                            x       y       z     vdW  Elec       q    Type
REMARK                         _______ _______ _______ _____ _____    ______ ____
ROOT
ATOM      1  C   LIG    1        4.093  -4.188   2.304  0.00  0.00    +0.160 C 
ATOM      2  C   LIG    1        4.096  -5.252   3.403  0.00  0.00    +0.090 C 
ENDROOT
BRANCH   1   3
ATOM      3  N   LIG    1        5.188  -3.238   2.539  0.00  0.00    -0.510 N 
ATOM      4  H   LIG    1        5.108  -2.856   3.469  0.00  0.00    +0.420 HD
ATOM      5  H   LIG    1        5.136  -2.491   1.863  0.00  0.00    +0.420 HD
BRANCH   3   6
ATOM      6  C   LIG    1        6.476  -3.933   2.404  0.00  0.00    +0.170 C 
ATOM      7  C   LIG    1        6.652  -4.404   0.960  0.00  0.00    +0.090 C 
BRANCH   6   8
ATOM      8  C   LIG    1        7.612  -2.975   2.771  0.00  0.00    +0.090 C 
BRANCH   8   9
ATOM      9  C   LIG    1        7.508  -2.607   4.228  0.00  0.00    -0.110 C 
ATOM     10  C   LIG    1        8.530  -2.796   5.026  0.00  0.00    +0.090 C 
ENDBRANCH   8   9
ENDBRANCH   6   8
ENDBRANCH   3   6
ENDBRANCH   1   3
BRANCH   1  11
ATOM     11  C   LIG    1        2.757  -3.441   2.321  0.00  0.00    +0.050 C 
BRANCH  11  12
ATOM     12  C   LIG    1        2.705  -2.464   1.145  0.00  0.00    -0.000 C 
BRANCH  12  13
ATOM     13  C   LIG    1        1.370  -1.717   1.161  0.00  0.00    +0.020 C 
BRANCH  13  14
ATOM     14  C   LIG    1        1.317  -0.740  -0.015  0.00  0.00    +0.050 C 
BRANCH  14  16
ATOM     15  C   LIG    1       -0.016   1.306   0.009  0.00  0.00    +0.020 C 
ATOM     16  C   LIG    1        0.002  -0.004   0.002  0.00  0.00    -0.060 C 
ENDBRANCH  14  16
ENDBRANCH  13  14
ENDBRANCH  12  13
ENDBRANCH  11  12
ENDBRANCH   1  11
TORSDOF 9
ENDMDL
MODEL      638
REMARK  Name = ZINC000648465932
REMARK                            x       y       z     vdW  Elec       q    Type
REMARK                         _______ _______ _______ _____ _____    ______ ____
ROOT
ATOM      1  C   LIG    1        4.093  -4.188   2.304  0.00  0.00    +0.170 C 
ATOM      2  C   LIG    1        4.197  -5.073   3.547  0.00  0.00    +0.090 C 
ENDROOT
BRANCH   1   3
ATOM      3  N   LIG    1        4.170  -5.025   1.099  0.00  0.00    -0.510 N 
ATOM      4  H   LIG    1        4.019  -4.453   0.282  0.00  0.00    +0.430 HD
ATOM      5  H   LIG    1        3.463  -5.744   1.142  0.00  0.00    +0.430 HD
BRANCH   3   6
ATOM      6  C   LIG    1        5.498  -5.649   1.021  0.00  0.00    +0.250 C 
BRANCH   6   7
ATOM      7  C   LIG    1        5.579  -6.521  -0.234  0.00  0.00    +0.060 C 
BRANCH   7   8
ATOM      8  C   LIG    1        6.962  -7.171  -0.315  0.00  0.00    -0.060 C 
ATOM      9  C   LIG    1        7.031  -8.697  -0.230  0.00  0.00    +0.030 C 
ATOM     10  C   LIG    1        7.284  -7.992  -1.565  0.00  0.00    +0.030 C 
ENDBRANCH   7   8
ENDBRANCH   6   7
ENDBRANCH   3   6
ENDBRANCH   1   3
BRANCH   1  11
ATOM     11  C   LIG    1        2.757  -3.441   2.321  0.00  0.00    +0.050 C 
BRANCH  11  12
ATOM     12  C   LIG    1        2.705  -2.464   1.145  0.00  0.00    -0.000 C 
BRANCH  12  13
ATOM     13  C   LIG    1        1.370  -1.717   1.161  0.00  0.00    +0.020 C 
BRANCH  13  14
ATOM     14  C   LIG    1        1.317  -0.740  -0.015  0.00  0.00    +0.050 C 
BRANCH  14  16
ATOM     15  C   LIG    1       -0.016   1.306   0.009  0.00  0.00    +0.020 C 
ATOM     16  C   LIG    1        0.002  -0.004   0.002  0.00  0.00    -0.060 C 
ENDBRANCH  14  16
ENDBRANCH  13  14
ENDBRANCH  12  13
ENDBRANCH  11  12
ENDBRANCH   1  11
TORSDOF 9
ENDMDL
MODEL      639
REMARK  Name = ZINC000648454011
REMARK                            x       y       z     vdW  Elec       q    Type
REMARK                         _______ _______ _______ _____ _____    ______ ____
ROOT
ATOM      1  C   LIG    1        4.044  -3.784   2.262  0.00  0.00    +0.160 C 
ATOM      2  C   LIG    1        4.089  -4.798   3.407  0.00  0.00    +0.090 C 
ENDROOT
BRANCH   1   3
ATOM      3  N   LIG    1        5.221  -2.908   2.336  0.00  0.00    -0.500 N 
ATOM      4  H   LIG    1        5.245  -2.453   3.236  0.00  0.00    +0.420 HD
ATOM      5  H   LIG    1        5.169  -2.212   1.608  0.00  0.00    +0.420 HD
BRANCH   3   6
ATOM      6  C   LIG    1        6.439  -3.710   2.160  0.00  0.00    +0.160 C 
ATOM      7  C   LIG    1        7.652  -2.906   2.635  0.00  0.00    +0.090 C 
BRANCH   6   8
ATOM      8  C   LIG    1        6.609  -4.063   0.681  0.00  0.00    +0.100 C 
BRANCH   8   9
ATOM      9  C   LIG    1        5.513  -5.010   0.262  0.00  0.00    -0.070 C 
ATOM     10  C   LIG    1        4.757  -4.721  -0.768  0.00  0.00    +0.060 C 
ENDBRANCH   8   9
ENDBRANCH   6   8
ENDBRANCH   3   6
ENDBRANCH   1   3
BRANCH   1  11
ATOM     11  C   LIG    1        2.773  -2.940   2.378  0.00  0.00    +0.060 C 
BRANCH  11  12
ATOM     12  C   LIG    1        2.664  -2.012   1.167  0.00  0.00    +0.010 C 
BRANCH  12  13
ATOM     13  C   LIG    1        1.393  -1.169   1.283  0.00  0.00    +0.020 C 
BRANCH  13  14
ATOM     14  C   LIG    1        1.284  -0.241   0.071  0.00  0.00    +0.050 C 
BRANCH  14  16
ATOM     15  C   LIG    1        0.106   1.897   0.129  0.00  0.00    +0.020 C 
ATOM     16  C   LIG    1        0.032   0.590   0.185  0.00  0.00    -0.060 C 
ENDBRANCH  14  16
ENDBRANCH  13  14
ENDBRANCH  12  13
ENDBRANCH  11  12
ENDBRANCH   1  11
TORSDOF 9
ENDMDL
MODEL      640
REMARK  Name = ZINC000648466681
REMARK                            x       y       z     vdW  Elec       q    Type
REMARK                         _______ _______ _______ _____ _____    ______ ____
ROOT
ATOM      1  C   LIG    1        4.093  -4.188   2.304  0.00  0.00    +0.170 C 
ATOM      2  C   LIG    1        4.197  -5.073   3.547  0.00  0.00    +0.090 C 
ENDROOT
BRANCH   1   3
ATOM      3  N   LIG    1        4.170  -5.025   1.099  0.00  0.00    -0.510 N 
ATOM      4  H   LIG    1        4.019  -4.453   0.282  0.00  0.00    +0.430 HD
ATOM      5  H   LIG    1        3.463  -5.744   1.142  0.00  0.00    +0.430 HD
BRANCH   3   6
ATOM      6  C   LIG    1        5.498  -5.649   1.021  0.00  0.00    +0.300 C 
BRANCH   6   7
ATOM      7  C   LIG    1        5.579  -6.521  -0.234  0.00  0.00    -0.190 C 
ATOM      8  C   LIG    1        6.508  -6.057  -1.357  0.00  0.00    +0.060 C 
ATOM      9  C   LIG    1        4.280  -7.223  -0.634  0.00  0.00    +0.090 C 
ATOM     10  C   LIG    1        6.892  -7.261  -0.496  0.00  0.00    +0.080 C 
ENDBRANCH   6   7
ENDBRANCH   3   6
ENDBRANCH   1   3
BRANCH   1  11
ATOM     11  C   LIG    1        2.757  -3.441   2.321  0.00  0.00    +0.050 C 
BRANCH  11  12
ATOM     12  C   LIG    1        2.705  -2.464   1.145  0.00  0.00    -0.000 C 
BRANCH  12  13
ATOM     13  C   LIG    1        1.370  -1.717   1.161  0.00  0.00    +0.020 C 
BRANCH  13  14
ATOM     14  C   LIG    1        1.317  -0.740  -0.015  0.00  0.00    +0.050 C 
BRANCH  14  16
ATOM     15  C   LIG    1       -0.016   1.306   0.009  0.00  0.00    +0.020 C 
ATOM     16  C   LIG    1        0.002  -0.004   0.002  0.00  0.00    -0.060 C 
ENDBRANCH  14  16
ENDBRANCH  13  14
ENDBRANCH  12  13
ENDBRANCH  11  12
ENDBRANCH   1  11
TORSDOF 8
ENDMDL
MODEL      641
REMARK  Name = ZINC000648465933
REMARK                            x       y       z     vdW  Elec       q    Type
REMARK                         _______ _______ _______ _____ _____    ______ ____
ROOT
ATOM      1  C   LIG    1        4.093  -4.188   2.304  0.00  0.00    +0.170 C 
ATOM      2  C   LIG    1        4.096  -5.252   3.403  0.00  0.00    +0.090 C 
ENDROOT
BRANCH   1   3
ATOM      3  N   LIG    1        5.188  -3.238   2.539  0.00  0.00    -0.510 N 
ATOM      4  H   LIG    1        5.108  -2.856   3.469  0.00  0.00    +0.430 HD
ATOM      5  H   LIG    1        5.136  -2.491   1.863  0.00  0.00    +0.430 HD
BRANCH   3   6
ATOM      6  C   LIG    1        6.476  -3.933   2.404  0.00  0.00    +0.250 C 
BRANCH   6   7
ATOM      7  C   LIG    1        7.617  -2.943   2.649  0.00  0.00    +0.060 C 
BRANCH   7   8
ATOM      8  C   LIG    1        8.958  -3.666   2.509  0.00  0.00    -0.060 C 
ATOM      9  C   LIG    1        9.888  -3.216   1.381  0.00  0.00    +0.030 C 
ATOM     10  C   LIG    1       10.225  -2.873   2.833  0.00  0.00    +0.030 C 
ENDBRANCH   7   8
ENDBRANCH   6   7
ENDBRANCH   3   6
ENDBRANCH   1   3
BRANCH   1  11
ATOM     11  C   LIG    1        2.757  -3.441   2.321  0.00  0.00    +0.050 C 
BRANCH  11  12
ATOM     12  C   LIG    1        2.705  -2.464   1.145  0.00  0.00    -0.000 C 
BRANCH  12  13
ATOM     13  C   LIG    1        1.370  -1.717   1.161  0.00  0.00    +0.020 C 
BRANCH  13  14
ATOM     14  C   LIG    1        1.317  -0.740  -0.015  0.00  0.00    +0.050 C 
BRANCH  14  16
ATOM     15  C   LIG    1       -0.016   1.306   0.009  0.00  0.00    +0.020 C 
ATOM     16  C   LIG    1        0.002  -0.004   0.002  0.00  0.00    -0.060 C 
ENDBRANCH  14  16
ENDBRANCH  13  14
ENDBRANCH  12  13
ENDBRANCH  11  12
ENDBRANCH   1  11
TORSDOF 9
ENDMDL
MODEL      642
REMARK  Name = ZINC000648454012
REMARK                            x       y       z     vdW  Elec       q    Type
REMARK                         _______ _______ _______ _____ _____    ______ ____
ROOT
ATOM      1  C   LIG    1        3.793  -4.327   1.877  0.00  0.00    +0.160 C 
ATOM      2  C   LIG    1        3.812  -5.027   3.237  0.00  0.00    +0.080 C 
ENDROOT
BRANCH   1   3
ATOM      3  N   LIG    1        4.088  -5.302   0.819  0.00  0.00    -0.500 N 
ATOM      4  H   LIG    1        4.049  -4.845  -0.080  0.00  0.00    +0.420 HD
ATOM      5  H   LIG    1        3.408  -6.046   0.848  0.00  0.00    +0.420 HD
BRANCH   3   6
ATOM      6  C   LIG    1        5.432  -5.858   1.027  0.00  0.00    +0.160 C 
ATOM      7  C   LIG    1        5.688  -6.968   0.006  0.00  0.00    +0.090 C 
BRANCH   6   8
ATOM      8  C   LIG    1        6.474  -4.752   0.851  0.00  0.00    +0.090 C 
BRANCH   8   9
ATOM      9  C   LIG    1        6.635  -4.001   2.147  0.00  0.00    -0.100 C 
ATOM     10  C   LIG    1        7.821  -3.870   2.686  0.00  0.00    +0.080 C 
ENDBRANCH   8   9
ENDBRANCH   6   8
ENDBRANCH   3   6
ENDBRANCH   1   3
BRANCH   1  11
ATOM     11  C   LIG    1        2.410  -3.717   1.637  0.00  0.00    +0.050 C 
BRANCH  11  12
ATOM     12  C   LIG    1        2.427  -2.911   0.337  0.00  0.00    -0.000 C 
BRANCH  12  13
ATOM     13  C   LIG    1        1.044  -2.301   0.097  0.00  0.00    +0.020 C 
BRANCH  13  14
ATOM     14  C   LIG    1        1.061  -1.496  -1.204  0.00  0.00    +0.050 C 
BRANCH  14  16
ATOM     15  C   LIG    1       -0.425   0.397  -1.620  0.00  0.00    +0.020 C 
ATOM     16  C   LIG    1       -0.301  -0.895  -1.440  0.00  0.00    -0.060 C 
ENDBRANCH  14  16
ENDBRANCH  13  14
ENDBRANCH  12  13
ENDBRANCH  11  12
ENDBRANCH   1  11
TORSDOF 9
ENDMDL
MODEL      643
REMARK  Name = ZINC000648454010
REMARK                            x       y       z     vdW  Elec       q    Type
REMARK                         _______ _______ _______ _____ _____    ______ ____
ROOT
ATOM      1  C   LIG    1        4.093  -4.188   2.304  0.00  0.00    +0.160 C 
ATOM      2  C   LIG    1        4.197  -5.073   3.547  0.00  0.00    +0.090 C 
ENDROOT
BRANCH   1   3
ATOM      3  N   LIG    1        4.170  -5.025   1.099  0.00  0.00    -0.510 N 
ATOM      4  H   LIG    1        4.019  -4.453   0.282  0.00  0.00    +0.420 HD
ATOM      5  H   LIG    1        3.463  -5.744   1.142  0.00  0.00    +0.420 HD
BRANCH   3   6
ATOM      6  C   LIG    1        5.498  -5.649   1.021  0.00  0.00    +0.170 C 
ATOM      7  C   LIG    1        6.561  -4.565   0.830  0.00  0.00    +0.090 C 
BRANCH   6   8
ATOM      8  C   LIG    1        5.538  -6.617  -0.163  0.00  0.00    +0.100 C 
BRANCH   8   9
ATOM      9  C   LIG    1        4.578  -7.752   0.083  0.00  0.00    -0.090 C 
ATOM     10  C   LIG    1        3.649  -8.027  -0.799  0.00  0.00    +0.060 C 
ENDBRANCH   8   9
ENDBRANCH   6   8
ENDBRANCH   3   6
ENDBRANCH   1   3
BRANCH   1  11
ATOM     11  C   LIG    1        2.757  -3.441   2.321  0.00  0.00    +0.050 C 
BRANCH  11  12
ATOM     12  C   LIG    1        2.705  -2.464   1.145  0.00  0.00    -0.000 C 
BRANCH  12  13
ATOM     13  C   LIG    1        1.370  -1.717   1.161  0.00  0.00    +0.020 C 
BRANCH  13  14
ATOM     14  C   LIG    1        1.317  -0.740  -0.015  0.00  0.00    +0.050 C 
BRANCH  14  16
ATOM     15  C   LIG    1       -0.016   1.306   0.009  0.00  0.00    +0.020 C 
ATOM     16  C   LIG    1        0.002  -0.004   0.002  0.00  0.00    -0.060 C 
ENDBRANCH  14  16
ENDBRANCH  13  14
ENDBRANCH  12  13
ENDBRANCH  11  12
ENDBRANCH   1  11
TORSDOF 9
ENDMDL
MODEL      644
REMARK  Name = ZINC000648466682
REMARK                            x       y       z     vdW  Elec       q    Type
REMARK                         _______ _______ _______ _____ _____    ______ ____
ROOT
ATOM      1  C   LIG    1        4.093  -4.188   2.304  0.00  0.00    +0.160 C 
ATOM      2  C   LIG    1        4.096  -5.252   3.403  0.00  0.00    +0.090 C 
ENDROOT
BRANCH   1   3
ATOM      3  N   LIG    1        5.188  -3.238   2.539  0.00  0.00    -0.510 N 
ATOM      4  H   LIG    1        5.108  -2.856   3.469  0.00  0.00    +0.430 HD
ATOM      5  H   LIG    1        5.136  -2.491   1.863  0.00  0.00    +0.430 HD
BRANCH   3   6
ATOM      6  C   LIG    1        6.476  -3.933   2.404  0.00  0.00    +0.290 C 
BRANCH   6   7
ATOM      7  C   LIG    1        7.617  -2.943   2.649  0.00  0.00    -0.190 C 
ATOM      8  C   LIG    1        8.451  -3.127   3.919  0.00  0.00    +0.060 C 
ATOM      9  C   LIG    1        7.363  -1.512   2.171  0.00  0.00    +0.090 C 
ATOM     10  C   LIG    1        9.047  -3.477   2.554  0.00  0.00    +0.080 C 
ENDBRANCH   6   7
ENDBRANCH   3   6
ENDBRANCH   1   3
BRANCH   1  11
ATOM     11  C   LIG    1        2.757  -3.441   2.321  0.00  0.00    +0.050 C 
BRANCH  11  12
ATOM     12  C   LIG    1        2.705  -2.464   1.145  0.00  0.00    -0.000 C 
BRANCH  12  13
ATOM     13  C   LIG    1        1.370  -1.717   1.161  0.00  0.00    +0.020 C 
BRANCH  13  14
ATOM     14  C   LIG    1        1.317  -0.740  -0.015  0.00  0.00    +0.050 C 
BRANCH  14  16
ATOM     15  C   LIG    1       -0.016   1.306   0.009  0.00  0.00    +0.020 C 
ATOM     16  C   LIG    1        0.002  -0.004   0.002  0.00  0.00    -0.060 C 
ENDBRANCH  14  16
ENDBRANCH  13  14
ENDBRANCH  12  13
ENDBRANCH  11  12
ENDBRANCH   1  11
TORSDOF 8
ENDMDL
MODEL      645
REMARK  Name = ZINC000648502550
REMARK                            x       y       z     vdW  Elec       q    Type
REMARK                         _______ _______ _______ _____ _____    ______ ____
ROOT
ATOM      1  C   LIG    1        4.094  -4.167   2.296  0.00  0.00    +0.160 C 
ATOM      2  C   LIG    1        4.032  -4.872   3.653  0.00  0.00    +0.080 C 
ENDROOT
BRANCH   1   3
ATOM      3  N   LIG    1        3.907  -5.153   1.223  0.00  0.00    -0.490 N 
ATOM      4  H   LIG    1        3.856  -4.677   0.335  0.00  0.00    +0.430 HD
ATOM      5  H   LIG    1        3.051  -5.663   1.381  0.00  0.00    +0.420 HD
BRANCH   3   6
ATOM      6  C   LIG    1        5.040  -6.088   1.214  0.00  0.00    +0.010 C 
ATOM      7  C   LIG    1        4.845  -7.300   2.140  0.00  0.00    +0.080 C 
ATOM      8  C   LIG    1        4.183  -8.007   0.945  0.00  0.00    +0.030 C 
ATOM      9  C   LIG    1        6.389  -5.389   1.393  0.00  0.00    +0.100 C 
ATOM     10  C   LIG    1        5.010  -7.079   0.039  0.00  0.00    +0.080 C 
ENDBRANCH   3   6
ENDBRANCH   1   3
BRANCH   1  11
ATOM     11  C   LIG    1        2.989  -3.112   2.218  0.00  0.00    +0.050 C 
BRANCH  11  12
ATOM     12  C   LIG    1        3.127  -2.323   0.915  0.00  0.00    -0.000 C 
BRANCH  12  13
ATOM     13  C   LIG    1        2.022  -1.268   0.837  0.00  0.00    +0.020 C 
BRANCH  13  14
ATOM     14  C   LIG    1        2.161  -0.479  -0.467  0.00  0.00    +0.050 C 
BRANCH  14  16
ATOM     15  C   LIG    1        1.381   1.820  -0.724  0.00  0.00    +0.020 C 
ATOM     16  C   LIG    1        1.072   0.560  -0.543  0.00  0.00    -0.060 C 
ENDBRANCH  14  16
ENDBRANCH  13  14
ENDBRANCH  12  13
ENDBRANCH  11  12
ENDBRANCH   1  11
TORSDOF 7
ENDMDL
MODEL      646
REMARK  Name = ZINC000648502551
REMARK                            x       y       z     vdW  Elec       q    Type
REMARK                         _______ _______ _______ _____ _____    ______ ____
ROOT
ATOM      1  C   LIG    1        4.025  -3.921   2.733  0.00  0.00    +0.170 C 
ATOM      2  C   LIG    1        4.011  -4.875   3.929  0.00  0.00    +0.080 C 
ENDROOT
BRANCH   1   3
ATOM      3  N   LIG    1        5.171  -3.010   2.848  0.00  0.00    -0.490 N 
ATOM      4  H   LIG    1        5.295  -2.744   3.813  0.00  0.00    +0.430 HD
ATOM      5  H   LIG    1        5.002  -2.185   2.292  0.00  0.00    +0.420 HD
BRANCH   3   6
ATOM      6  C   LIG    1        6.384  -3.685   2.366  0.00  0.00    +0.010 C 
ATOM      7  C   LIG    1        6.538  -3.656   0.836  0.00  0.00    +0.080 C 
ATOM      8  C   LIG    1        7.287  -2.325   1.015  0.00  0.00    +0.030 C 
ATOM      9  C   LIG    1        6.572  -5.075   2.977  0.00  0.00    +0.100 C 
ATOM     10  C   LIG    1        7.645  -2.808   2.430  0.00  0.00    +0.080 C 
ENDBRANCH   3   6
ENDBRANCH   1   3
BRANCH   1  11
ATOM     11  C   LIG    1        2.728  -3.109   2.714  0.00  0.00    +0.050 C 
BRANCH  11  12
ATOM     12  C   LIG    1        2.686  -2.245   1.452  0.00  0.00    +0.000 C 
BRANCH  12  13
ATOM     13  C   LIG    1        1.389  -1.433   1.432  0.00  0.00    +0.020 C 
BRANCH  13  14
ATOM     14  C   LIG    1        1.347  -0.569   0.170  0.00  0.00    +0.050 C 
BRANCH  14  16
ATOM     15  C   LIG    1        0.116   1.534   0.033  0.00  0.00    +0.020 C 
ATOM     16  C   LIG    1        0.070   0.230   0.151  0.00  0.00    -0.060 C 
ENDBRANCH  14  16
ENDBRANCH  13  14
ENDBRANCH  12  13
ENDBRANCH  11  12
ENDBRANCH   1  11
TORSDOF 7
ENDMDL
MODEL      647
REMARK  Name = ZINC000739911706
REMARK                            x       y       z     vdW  Elec       q    Type
REMARK                         _______ _______ _______ _____ _____    ______ ____
ROOT
ATOM      1  C   LIG    1       -2.556  -3.502  -2.235  0.00  0.00    +0.160 C 
ATOM      2  C   LIG    1       -1.388  -4.462  -2.001  0.00  0.00    +0.030 C 
ATOM      3  C   LIG    1       -1.585  -5.720  -2.850  0.00  0.00    +0.030 C 
ATOM      4  C   LIG    1       -1.246  -5.409  -4.309  0.00  0.00    +0.010 C 
ATOM      5  C   LIG    1       -2.390  -4.611  -4.938  0.00  0.00    +0.000 C 
ATOM      6  C   LIG    1       -3.729  -5.231  -4.534  0.00  0.00    +0.010 C 
ATOM      7  C   LIG    1       -4.488  -4.261  -3.627  0.00  0.00    +0.030 C 
ATOM      8  C   LIG    1       -3.870  -4.285  -2.227  0.00  0.00    +0.040 C 
ENDROOT
BRANCH   1   9
ATOM      9  N   LIG    1       -2.581  -2.493  -1.168  0.00  0.00    -0.380 N 
ATOM     10  C   LIG    1       -3.702  -1.570  -1.393  0.00  0.00    +0.310 C 
ATOM     11  H   LIG    1       -2.695  -2.949  -0.276  0.00  0.00    +0.420 HD
BRANCH   9  12
ATOM     12  C   LIG    1       -1.319  -1.741  -1.176  0.00  0.00    +0.250 C 
BRANCH  12  13
ATOM     13  C   LIG    1       -1.293  -0.775   0.010  0.00  0.00    +0.070 C 
BRANCH  13  15
ATOM     14  C   LIG    1       -0.016   1.306   0.009  0.00  0.00    +0.060 C 
ATOM     15  C   LIG    1        0.002  -0.004   0.002  0.00  0.00    -0.060 C 
ENDBRANCH  13  15
ENDBRANCH  12  13
ENDBRANCH   9  12
ENDBRANCH   1   9
TORSDOF 4
ENDMDL
MODEL      648
REMARK  Name = ZINC000740874548
REMARK                            x       y       z     vdW  Elec       q    Type
REMARK                         _______ _______ _______ _____ _____    ______ ____
ROOT
ATOM      1  N   LIG    1        2.212  -6.013  -3.799  0.00  0.00    -0.410 N 
ATOM      2  C   LIG    1        0.844  -6.585  -4.066  0.00  0.00    +0.200 C 
ATOM      3  C   LIG    1        0.573  -6.052  -5.505  0.00  0.00    +0.060 C 
ATOM      4  C   LIG    1        1.978  -6.029  -6.153  0.00  0.00    +0.060 C 
ATOM      5  C   LIG    1        1.184  -8.095  -4.252  0.00  0.00    +0.060 C 
ATOM      6  C   LIG    1        2.591  -8.072  -4.899  0.00  0.00    +0.060 C 
ATOM      7  C   LIG    1        2.913  -6.552  -5.019  0.00  0.00    +0.210 C 
ATOM      8  H   LIG    1        2.610  -6.381  -2.948  0.00  0.00    +0.420 HD
ENDROOT
BRANCH   1   9
ATOM      9  C   LIG    1        2.192  -4.544  -3.791  0.00  0.00    +0.250 C 
BRANCH   9  10
ATOM     10  C   LIG    1        1.476  -4.051  -2.532  0.00  0.00    +0.020 C 
BRANCH  10  11
ATOM     11  C   LIG    1        1.455  -2.521  -2.524  0.00  0.00    +0.020 C 
BRANCH  11  12
ATOM     12  C   LIG    1        0.739  -2.027  -1.265  0.00  0.00    +0.020 C 
BRANCH  12  13
ATOM     13  C   LIG    1        0.718  -0.497  -1.257  0.00  0.00    +0.000 C 
BRANCH  13  15
ATOM     14  C   LIG    1       -0.019   1.526   0.010  0.00  0.00    +0.000 C 
ATOM     15  C   LIG    1        0.002  -0.004   0.002  0.00  0.00    -0.010 C 
ENDBRANCH  13  15
ENDBRANCH  12  13
ENDBRANCH  11  12
ENDBRANCH  10  11
ENDBRANCH   9  10
ENDBRANCH   1   9
TORSDOF 6
ENDMDL
MODEL      649
REMARK  Name = ZINC000740875850
REMARK                            x       y       z     vdW  Elec       q    Type
REMARK                         _______ _______ _______ _____ _____    ______ ____
ROOT
ATOM      1  N   LIG    1        2.284  -6.053   3.696  0.00  0.00    -0.380 N 
ATOM      2  C   LIG    1        0.912  -6.562   3.827  0.00  0.00    +0.320 C 
ATOM      3  H   LIG    1        2.682  -6.379   2.828  0.00  0.00    +0.420 HD
ENDROOT
BRANCH   1   4
ATOM      4  C   LIG    1        3.095  -6.538   4.820  0.00  0.00    +0.190 C 
ATOM      5  C   LIG    1        3.116  -8.068   4.811  0.00  0.00    +0.090 C 
BRANCH   4   6
ATOM      6  C   LIG    1        4.524  -6.008   4.683  0.00  0.00    -0.090 C 
ATOM      7  C   LIG    1        4.994  -4.973   5.707  0.00  0.00    +0.050 C 
ATOM      8  C   LIG    1        5.531  -6.404   5.765  0.00  0.00    +0.070 C 
ENDBRANCH   4   6
ENDBRANCH   1   4
BRANCH   1   9
ATOM      9  C   LIG    1        2.264  -4.584   3.704  0.00  0.00    +0.250 C 
BRANCH   9  10
ATOM     10  C   LIG    1        1.524  -4.077   2.464  0.00  0.00    +0.030 C 
BRANCH  10  11
ATOM     11  C   LIG    1        1.503  -2.548   2.473  0.00  0.00    +0.020 C 
BRANCH  11  12
ATOM     12  C   LIG    1        0.763  -2.041   1.233  0.00  0.00    +0.020 C 
BRANCH  12  13
ATOM     13  C   LIG    1        0.742  -0.511   1.242  0.00  0.00    +0.000 C 
BRANCH  13  15
ATOM     14  C   LIG    1       -0.019   1.526   0.010  0.00  0.00    +0.000 C 
ATOM     15  C   LIG    1        0.002  -0.004   0.002  0.00  0.00    -0.010 C 
ENDBRANCH  13  15
ENDBRANCH  12  13
ENDBRANCH  11  12
ENDBRANCH  10  11
ENDBRANCH   9  10
ENDBRANCH   1   9
TORSDOF 8
ENDMDL
MODEL      650
REMARK  Name = ZINC000740875849
REMARK                            x       y       z     vdW  Elec       q    Type
REMARK                         _______ _______ _______ _____ _____    ______ ____
ROOT
ATOM      1  N   LIG    1        2.284  -6.053   3.696  0.00  0.00    -0.380 N 
ATOM      2  C   LIG    1        0.912  -6.562   3.827  0.00  0.00    +0.320 C 
ATOM      3  H   LIG    1        2.682  -6.379   2.828  0.00  0.00    +0.420 HD
ENDROOT
BRANCH   1   4
ATOM      4  C   LIG    1        3.095  -6.538   4.820  0.00  0.00    +0.200 C 
ATOM      5  C   LIG    1        4.524  -6.008   4.683  0.00  0.00    +0.090 C 
BRANCH   4   6
ATOM      6  C   LIG    1        3.116  -8.068   4.811  0.00  0.00    -0.080 C 
ATOM      7  C   LIG    1        4.465  -8.755   4.591  0.00  0.00    +0.050 C 
ATOM      8  C   LIG    1        3.815  -8.771   5.976  0.00  0.00    +0.070 C 
ENDBRANCH   4   6
ENDBRANCH   1   4
BRANCH   1   9
ATOM      9  C   LIG    1        2.264  -4.584   3.704  0.00  0.00    +0.240 C 
BRANCH   9  10
ATOM     10  C   LIG    1        1.524  -4.077   2.464  0.00  0.00    +0.030 C 
BRANCH  10  11
ATOM     11  C   LIG    1        1.503  -2.548   2.473  0.00  0.00    +0.020 C 
BRANCH  11  12
ATOM     12  C   LIG    1        0.763  -2.041   1.233  0.00  0.00    +0.020 C 
BRANCH  12  13
ATOM     13  C   LIG    1        0.742  -0.511   1.242  0.00  0.00    +0.000 C 
BRANCH  13  15
ATOM     14  C   LIG    1       -0.019   1.526   0.010  0.00  0.00    +0.000 C 
ATOM     15  C   LIG    1        0.002  -0.004   0.002  0.00  0.00    -0.010 C 
ENDBRANCH  13  15
ENDBRANCH  12  13
ENDBRANCH  11  12
ENDBRANCH  10  11
ENDBRANCH   9  10
ENDBRANCH   1   9
TORSDOF 8
ENDMDL
MODEL      651
REMARK  Name = ZINC000743841178
REMARK                            x       y       z     vdW  Elec       q    Type
REMARK                         _______ _______ _______ _____ _____    ______ ____
ROOT
ATOM      1  N   LIG    1       -1.112  -2.218  -1.191  0.00  0.00    -0.380 N 
ATOM      2  H   LIG    1       -0.291  -2.799  -1.275  0.00  0.00    +0.420 HD
ENDROOT
BRANCH   1   3
ATOM      3  C   LIG    1       -0.977  -1.051  -2.073  0.00  0.00    +0.160 C 
ATOM      4  C   LIG    1        0.349  -0.344  -1.785  0.00  0.00    +0.080 C 
ATOM      5  C   LIG    1       -2.136  -0.085  -1.821  0.00  0.00    +0.080 C 
ENDBRANCH   1   3
BRANCH   1   6
ATOM      6  C   LIG    1       -1.252  -1.766   0.200  0.00  0.00    +0.290 C 
BRANCH   6   8
ATOM      7  C   LIG    1        0.032   0.065   1.179  0.00  0.00    +0.110 C 
ATOM      8  C   LIG    1        0.039  -1.136   0.656  0.00  0.00    -0.080 C 
ENDBRANCH   6   8
ENDBRANCH   1   6
BRANCH   1   9
ATOM      9  C   LIG    1       -2.300  -2.990  -1.577  0.00  0.00    +0.240 C 
BRANCH   9  10
ATOM     10  C   LIG    1       -2.134  -3.498  -3.011  0.00  0.00    +0.040 C 
BRANCH  10  11
ATOM     11  C   LIG    1       -3.359  -4.326  -3.403  0.00  0.00    -0.060 C 
ATOM     12  C   LIG    1       -4.614  -3.455  -3.313  0.00  0.00    +0.020 C 
ATOM     13  C   LIG    1       -3.496  -5.517  -2.453  0.00  0.00    +0.020 C 
BRANCH  11  14
ATOM     14  C   LIG    1       -3.193  -4.835  -4.837  0.00  0.00    +0.030 C 
ATOM     15  C   LIG    1       -4.418  -5.663  -5.229  0.00  0.00    +0.020 C 
ENDBRANCH  11  14
ENDBRANCH  10  11
ENDBRANCH   9  10
ENDBRANCH   1   9
TORSDOF 7
ENDMDL
MODEL      652
REMARK  Name = ZINC000670264728
REMARK                            x       y       z     vdW  Elec       q    Type
REMARK                         _______ _______ _______ _____ _____    ______ ____
ROOT
ATOM      1  N   LIG    1       -2.609  -3.546  -2.232  0.00  0.00    -0.390 N 
ATOM      2  C   LIG    1       -2.536  -2.733  -1.010  0.00  0.00    +0.310 C 
ATOM      3  H   LIG    1       -1.925  -4.286  -2.185  0.00  0.00    +0.420 HD
ENDROOT
BRANCH   1   4
ATOM      4  C   LIG    1       -2.335  -2.700  -3.401  0.00  0.00    +0.240 C 
BRANCH   4   5
ATOM      5  C   LIG    1       -0.893  -2.194  -3.337  0.00  0.00    +0.040 C 
BRANCH   5   6
ATOM      6  C   LIG    1       -0.608  -1.312  -4.554  0.00  0.00    +0.070 C 
BRANCH   6   8
ATOM      7  C   LIG    1        1.625  -1.022  -5.498  0.00  0.00    +0.030 C 
ATOM      8  C   LIG    1        0.813  -0.813  -4.492  0.00  0.00    -0.070 C 
ENDBRANCH   6   8
ENDBRANCH   5   6
ENDBRANCH   4   5
ENDBRANCH   1   4
BRANCH   1   9
ATOM      9  C   LIG    1       -3.953  -4.128  -2.353  0.00  0.00    +0.240 C 
BRANCH   9  10
ATOM     10  C   LIG    1       -3.984  -5.097  -3.537  0.00  0.00    -0.020 C 
ATOM     11  C   LIG    1       -3.044  -6.272  -3.260  0.00  0.00    +0.030 C 
BRANCH  10  12
ATOM     12  C   LIG    1       -5.409  -5.618  -3.732  0.00  0.00    -0.060 C 
ATOM     13  C   LIG    1       -5.863  -6.347  -2.465  0.00  0.00    +0.020 C 
ATOM     14  C   LIG    1       -5.440  -6.586  -4.916  0.00  0.00    +0.040 C 
ATOM     15  C   LIG    1       -6.349  -4.443  -4.009  0.00  0.00    +0.030 C 
ENDBRANCH  10  12
ENDBRANCH   9  10
ENDBRANCH   1   9
TORSDOF 7
ENDMDL
MODEL      653
REMARK  Name = ZINC000670264729
REMARK                            x       y       z     vdW  Elec       q    Type
REMARK                         _______ _______ _______ _____ _____    ______ ____
ROOT
ATOM      1  N   LIG    1       -2.658  -3.451  -2.307  0.00  0.00    -0.390 N 
ATOM      2  C   LIG    1       -1.604  -4.460  -2.141  0.00  0.00    +0.310 C 
ATOM      3  H   LIG    1       -2.501  -2.938  -3.162  0.00  0.00    +0.420 HD
ENDROOT
BRANCH   1   4
ATOM      4  C   LIG    1       -2.633  -2.524  -1.168  0.00  0.00    +0.250 C 
BRANCH   4   5
ATOM      5  C   LIG    1       -1.319  -1.741  -1.176  0.00  0.00    +0.040 C 
BRANCH   5   6
ATOM      6  C   LIG    1       -1.293  -0.775   0.010  0.00  0.00    +0.070 C 
BRANCH   6   8
ATOM      7  C   LIG    1       -0.016   1.306   0.009  0.00  0.00    +0.030 C 
ATOM      8  C   LIG    1        0.002  -0.004   0.002  0.00  0.00    -0.070 C 
ENDBRANCH   6   8
ENDBRANCH   5   6
ENDBRANCH   4   5
ENDBRANCH   1   4
BRANCH   1   9
ATOM      9  C   LIG    1       -3.967  -4.115  -2.369  0.00  0.00    +0.240 C 
BRANCH   9  10
ATOM     10  C   LIG    1       -4.038  -4.986  -3.625  0.00  0.00    -0.010 C 
ATOM     11  C   LIG    1       -3.977  -4.095  -4.867  0.00  0.00    +0.050 C 
BRANCH  10  12
ATOM     12  C   LIG    1       -5.349  -5.774  -3.626  0.00  0.00    -0.060 C 
ATOM     13  C   LIG    1       -5.410  -6.665  -2.384  0.00  0.00    +0.030 C 
ATOM     14  C   LIG    1       -5.420  -6.645  -4.882  0.00  0.00    +0.040 C 
ATOM     15  C   LIG    1       -6.529  -4.800  -3.613  0.00  0.00    +0.030 C 
ENDBRANCH  10  12
ENDBRANCH   9  10
ENDBRANCH   1   9
TORSDOF 7
ENDMDL
MODEL      654
REMARK  Name = ZINC000648727240
REMARK                            x       y       z     vdW  Elec       q    Type
REMARK                         _______ _______ _______ _____ _____    ______ ____
ROOT
ATOM      1  N   LIG    1        2.711  -2.581   0.122  0.00  0.00    -0.510 N 
ATOM      2  H   LIG    1        3.402  -1.938  -0.235  0.00  0.00    +0.430 HD
ATOM      3  H   LIG    1        2.868  -3.496  -0.273  0.00  0.00    +0.430 HD
ENDROOT
BRANCH   1   4
ATOM      4  C   LIG    1        2.818  -2.653   1.585  0.00  0.00    +0.170 C 
ATOM      5  C   LIG    1        2.704  -1.246   2.175  0.00  0.00    +0.090 C 
BRANCH   4   6
ATOM      6  C   LIG    1        4.170  -3.258   1.968  0.00  0.00    +0.060 C 
BRANCH   6   7
ATOM      7  C   LIG    1        4.235  -4.709   1.485  0.00  0.00    +0.050 C 
BRANCH   7   8
ATOM      8  C   LIG    1        5.567  -5.305   1.862  0.00  0.00    -0.090 C 
ATOM      9  C   LIG    1        5.616  -6.374   2.618  0.00  0.00    -0.100 C 
ATOM     10  C   LIG    1        6.937  -7.047   2.886  0.00  0.00    +0.080 C 
ATOM     11  C   LIG    1        4.351  -6.930   3.219  0.00  0.00    +0.080 C 
ENDBRANCH   7   8
ENDBRANCH   6   7
ENDBRANCH   4   6
ENDBRANCH   1   4
BRANCH   1  12
ATOM     12  C   LIG    1        1.368  -2.112  -0.248  0.00  0.00    +0.250 C 
BRANCH  12  13
ATOM     13  C   LIG    1        1.256  -2.037  -1.772  0.00  0.00    +0.070 C 
BRANCH  13  15
ATOM     14  C   LIG    1       -0.329  -0.284  -2.386  0.00  0.00    +0.050 C 
ATOM     15  C   LIG    1       -0.121  -1.556  -2.151  0.00  0.00    -0.150 C 
ATOM     16  C   LIG    1       -1.258  -2.539  -2.260  0.00  0.00    +0.080 C 
ENDBRANCH  13  15
ENDBRANCH  12  13
ENDBRANCH   1  12
TORSDOF 7
ENDMDL
MODEL      655
REMARK  Name = ZINC000648727815
REMARK                            x       y       z     vdW  Elec       q    Type
REMARK                         _______ _______ _______ _____ _____    ______ ____
ROOT
ATOM      1  N   LIG    1       -2.945  -1.908  -1.395  0.00  0.00    -0.510 N 
ATOM      2  H   LIG    1       -3.688  -1.316  -1.054  0.00  0.00    +0.430 HD
ATOM      3  H   LIG    1       -2.868  -2.723  -0.806  0.00  0.00    +0.430 HD
ENDROOT
BRANCH   1   4
ATOM      4  C   LIG    1       -3.244  -2.325  -2.771  0.00  0.00    +0.160 C 
ATOM      5  C   LIG    1       -3.508  -1.088  -3.633  0.00  0.00    +0.080 C 
BRANCH   4   6
ATOM      6  C   LIG    1       -4.483  -3.223  -2.775  0.00  0.00    +0.040 C 
BRANCH   6   7
ATOM      7  C   LIG    1       -4.709  -3.775  -4.184  0.00  0.00    +0.000 C 
ATOM      8  C   LIG    1       -3.617  -4.814  -4.540  0.00  0.00    +0.010 C 
ATOM      9  C   LIG    1       -4.302  -5.667  -5.637  0.00  0.00    +0.010 C 
ATOM     10  C   LIG    1       -5.768  -5.777  -5.169  0.00  0.00    +0.010 C 
ATOM     11  C   LIG    1       -6.027  -4.574  -4.245  0.00  0.00    +0.020 C 
ENDBRANCH   6   7
ENDBRANCH   4   6
ENDBRANCH   1   4
BRANCH   1  12
ATOM     12  C   LIG    1       -1.677  -1.166  -1.372  0.00  0.00    +0.250 C 
BRANCH  12  13
ATOM     13  C   LIG    1       -1.366  -0.732   0.061  0.00  0.00    +0.070 C 
BRANCH  13  15
ATOM     14  C   LIG    1       -0.072   1.338   0.022  0.00  0.00    +0.050 C 
ATOM     15  C   LIG    1       -0.066   0.029   0.085  0.00  0.00    -0.150 C 
ATOM     16  C   LIG    1        1.241  -0.715   0.180  0.00  0.00    +0.070 C 
ENDBRANCH  13  15
ENDBRANCH  12  13
ENDBRANCH   1  12
TORSDOF 6
ENDMDL
MODEL      656
REMARK  Name = ZINC000648727764
REMARK                            x       y       z     vdW  Elec       q    Type
REMARK                         _______ _______ _______ _____ _____    ______ ____
ROOT
ATOM      1  C   LIG    1        4.093  -4.188   2.304  0.00  0.00    +0.170 C 
ATOM      2  C   LIG    1        4.197  -5.073   3.547  0.00  0.00    +0.090 C 
ENDROOT
BRANCH   1   3
ATOM      3  N   LIG    1        4.170  -5.025   1.099  0.00  0.00    -0.510 N 
ATOM      4  H   LIG    1        4.019  -4.453   0.282  0.00  0.00    +0.430 HD
ATOM      5  H   LIG    1        3.463  -5.744   1.142  0.00  0.00    +0.430 HD
BRANCH   3   6
ATOM      6  C   LIG    1        5.498  -5.649   1.021  0.00  0.00    +0.250 C 
BRANCH   6   7
ATOM      7  C   LIG    1        5.579  -6.521  -0.234  0.00  0.00    +0.070 C 
BRANCH   7   8
ATOM      8  C   LIG    1        6.941  -7.161  -0.314  0.00  0.00    -0.150 C 
ATOM      9  C   LIG    1        8.091  -6.411  -0.936  0.00  0.00    +0.080 C 
ATOM     10  C   LIG    1        7.126  -8.369   0.158  0.00  0.00    +0.050 C 
ENDBRANCH   7   8
ENDBRANCH   6   7
ENDBRANCH   3   6
ENDBRANCH   1   3
BRANCH   1  11
ATOM     11  C   LIG    1        2.757  -3.441   2.321  0.00  0.00    +0.050 C 
BRANCH  11  12
ATOM     12  C   LIG    1        2.705  -2.464   1.145  0.00  0.00    -0.000 C 
BRANCH  12  13
ATOM     13  C   LIG    1        1.370  -1.717   1.161  0.00  0.00    +0.020 C 
BRANCH  13  14
ATOM     14  C   LIG    1        1.317  -0.740  -0.015  0.00  0.00    +0.050 C 
BRANCH  14  16
ATOM     15  C   LIG    1       -0.016   1.306   0.009  0.00  0.00    +0.020 C 
ATOM     16  C   LIG    1        0.002  -0.004   0.002  0.00  0.00    -0.060 C 
ENDBRANCH  14  16
ENDBRANCH  13  14
ENDBRANCH  12  13
ENDBRANCH  11  12
ENDBRANCH   1  11
TORSDOF 9
ENDMDL
MODEL      657
REMARK  Name = ZINC000648727765
REMARK                            x       y       z     vdW  Elec       q    Type
REMARK                         _______ _______ _______ _____ _____    ______ ____
ROOT
ATOM      1  C   LIG    1        4.093  -4.188   2.304  0.00  0.00    +0.170 C 
ATOM      2  C   LIG    1        4.096  -5.252   3.403  0.00  0.00    +0.090 C 
ENDROOT
BRANCH   1   3
ATOM      3  N   LIG    1        5.188  -3.238   2.539  0.00  0.00    -0.510 N 
ATOM      4  H   LIG    1        5.108  -2.856   3.469  0.00  0.00    +0.430 HD
ATOM      5  H   LIG    1        5.136  -2.491   1.863  0.00  0.00    +0.430 HD
BRANCH   3   6
ATOM      6  C   LIG    1        6.476  -3.933   2.404  0.00  0.00    +0.250 C 
BRANCH   6   7
ATOM      7  C   LIG    1        7.617  -2.943   2.649  0.00  0.00    +0.070 C 
BRANCH   7   8
ATOM      8  C   LIG    1        8.937  -3.655   2.511  0.00  0.00    -0.150 C 
ATOM      9  C   LIG    1        9.521  -4.396   3.687  0.00  0.00    +0.080 C 
ATOM     10  C   LIG    1        9.579  -3.630   1.369  0.00  0.00    +0.050 C 
ENDBRANCH   7   8
ENDBRANCH   6   7
ENDBRANCH   3   6
ENDBRANCH   1   3
BRANCH   1  11
ATOM     11  C   LIG    1        2.757  -3.441   2.321  0.00  0.00    +0.050 C 
BRANCH  11  12
ATOM     12  C   LIG    1        2.705  -2.464   1.145  0.00  0.00    -0.000 C 
BRANCH  12  13
ATOM     13  C   LIG    1        1.370  -1.717   1.161  0.00  0.00    +0.020 C 
BRANCH  13  14
ATOM     14  C   LIG    1        1.317  -0.740  -0.015  0.00  0.00    +0.050 C 
BRANCH  14  16
ATOM     15  C   LIG    1       -0.016   1.306   0.009  0.00  0.00    +0.020 C 
ATOM     16  C   LIG    1        0.002  -0.004   0.002  0.00  0.00    -0.060 C 
ENDBRANCH  14  16
ENDBRANCH  13  14
ENDBRANCH  12  13
ENDBRANCH  11  12
ENDBRANCH   1  11
TORSDOF 9
ENDMDL
MODEL      658
REMARK  Name = ZINC000648727816
REMARK                            x       y       z     vdW  Elec       q    Type
REMARK                         _______ _______ _______ _____ _____    ______ ____
ROOT
ATOM      1  N   LIG    1       -2.942  -1.888  -1.417  0.00  0.00    -0.510 N 
ATOM      2  H   LIG    1       -3.668  -1.322  -1.005  0.00  0.00    +0.430 HD
ATOM      3  H   LIG    1       -2.827  -2.733  -0.877  0.00  0.00    +0.430 HD
ENDROOT
BRANCH   1   4
ATOM      4  C   LIG    1       -3.314  -2.235  -2.795  0.00  0.00    +0.170 C 
ATOM      5  C   LIG    1       -2.275  -3.195  -3.378  0.00  0.00    +0.090 C 
BRANCH   4   6
ATOM      6  C   LIG    1       -4.689  -2.908  -2.799  0.00  0.00    +0.060 C 
BRANCH   6   7
ATOM      7  C   LIG    1       -5.748  -1.907  -2.333  0.00  0.00    -0.040 C 
ATOM      8  C   LIG    1       -5.967  -0.812  -3.406  0.00  0.00    +0.010 C 
ATOM      9  C   LIG    1       -7.395  -0.302  -3.088  0.00  0.00    +0.010 C 
ATOM     10  C   LIG    1       -8.170  -1.574  -2.688  0.00  0.00    +0.010 C 
ATOM     11  C   LIG    1       -7.123  -2.595  -2.208  0.00  0.00    +0.020 C 
ENDBRANCH   6   7
ENDBRANCH   4   6
ENDBRANCH   1   4
BRANCH   1  12
ATOM     12  C   LIG    1       -1.680  -1.137  -1.425  0.00  0.00    +0.250 C 
BRANCH  12  13
ATOM     13  C   LIG    1       -1.293  -0.775   0.010  0.00  0.00    +0.070 C 
BRANCH  13  15
ATOM     14  C   LIG    1       -0.016   1.306   0.009  0.00  0.00    +0.050 C 
ATOM     15  C   LIG    1        0.002  -0.004   0.002  0.00  0.00    -0.150 C 
ATOM     16  C   LIG    1        1.317  -0.740  -0.015  0.00  0.00    +0.070 C 
ENDBRANCH  13  15
ENDBRANCH  12  13
ENDBRANCH   1  12
TORSDOF 6
ENDMDL
MODEL      659
REMARK  Name = ZINC000648727798
REMARK                            x       y       z     vdW  Elec       q    Type
REMARK                         _______ _______ _______ _____ _____    ______ ____
ROOT
ATOM      1  C   LIG    1        2.771  -2.375   1.131  0.00  0.00    +0.170 C 
ENDROOT
BRANCH   1   2
ATOM      2  N   LIG    1        3.953  -1.506   1.218  0.00  0.00    -0.510 N 
ATOM      3  H   LIG    1        4.084  -1.213   2.174  0.00  0.00    +0.430 HD
ATOM      4  H   LIG    1        3.818  -0.696   0.632  0.00  0.00    +0.430 HD
BRANCH   2   5
ATOM      5  C   LIG    1        5.139  -2.246   0.765  0.00  0.00    +0.250 C 
BRANCH   5   6
ATOM      6  C   LIG    1        6.344  -1.304   0.730  0.00  0.00    +0.070 C 
BRANCH   6   7
ATOM      7  C   LIG    1        7.561  -2.063   0.266  0.00  0.00    -0.150 C 
ATOM      8  C   LIG    1        8.384  -2.846   1.256  0.00  0.00    +0.080 C 
ATOM      9  C   LIG    1        7.902  -2.042  -0.999  0.00  0.00    +0.050 C 
ENDBRANCH   6   7
ENDBRANCH   5   6
ENDBRANCH   2   5
ENDBRANCH   1   2
BRANCH   1  10
ATOM     10  C   LIG    1        1.517  -1.565   1.463  0.00  0.00    +0.070 C 
BRANCH  10  11
ATOM     11  C   LIG    1        1.307  -0.488   0.396  0.00  0.00    +0.050 C 
BRANCH  11  13
ATOM     12  C   LIG    1        0.144   1.613   0.832  0.00  0.00    +0.040 C 
ATOM     13  C   LIG    1        0.072   0.310   0.724  0.00  0.00    -0.050 C 
ENDBRANCH  11  13
ENDBRANCH  10  11
ENDBRANCH   1  10
BRANCH   1  14
ATOM     14  C   LIG    1        2.912  -3.529   2.126  0.00  0.00    +0.040 C 
BRANCH  14  15
ATOM     15  C   LIG    1        1.756  -4.512   1.933  0.00  0.00    +0.030 C 
ATOM     16  C   LIG    1        1.847  -5.619   2.986  0.00  0.00    +0.030 C 
ENDBRANCH  14  15
ENDBRANCH   1  14
TORSDOF 9
ENDMDL
MODEL      660
REMARK  Name = ZINC000648727797
REMARK                            x       y       z     vdW  Elec       q    Type
REMARK                         _______ _______ _______ _____ _____    ______ ____
ROOT
ATOM      1  C   LIG    1        2.740  -2.471   1.185  0.00  0.00    +0.170 C 
ENDROOT
BRANCH   1   2
ATOM      2  N   LIG    1        2.621  -3.318  -0.009  0.00  0.00    -0.510 N 
ATOM      3  H   LIG    1        2.559  -2.735  -0.830  0.00  0.00    +0.430 HD
ATOM      4  H   LIG    1        1.790  -3.886   0.063  0.00  0.00    +0.430 HD
BRANCH   2   5
ATOM      5  C   LIG    1        3.801  -4.187  -0.114  0.00  0.00    +0.250 C 
BRANCH   5   6
ATOM      6  C   LIG    1        3.635  -5.130  -1.307  0.00  0.00    +0.070 C 
BRANCH   6   7
ATOM      7  C   LIG    1        4.846  -6.021  -1.415  0.00  0.00    -0.150 C 
ATOM      8  C   LIG    1        6.072  -5.542  -2.148  0.00  0.00    +0.080 C 
ATOM      9  C   LIG    1        4.833  -7.213  -0.870  0.00  0.00    +0.050 C 
ENDBRANCH   6   7
ENDBRANCH   5   6
ENDBRANCH   2   5
ENDBRANCH   1   2
BRANCH   1  10
ATOM     10  C   LIG    1        1.592  -1.460   1.211  0.00  0.00    +0.070 C 
BRANCH  10  11
ATOM     11  C   LIG    1        1.727  -0.506   0.023  0.00  0.00    +0.040 C 
BRANCH  11  13
ATOM     12  C   LIG    1        0.854   1.774   0.038  0.00  0.00    +0.050 C 
ATOM     13  C   LIG    1        0.596   0.490   0.048  0.00  0.00    -0.070 C 
ENDBRANCH  11  13
ENDBRANCH  10  11
ENDBRANCH   1  10
BRANCH   1  14
ATOM     14  C   LIG    1        2.678  -3.346   2.439  0.00  0.00    +0.040 C 
BRANCH  14  15
ATOM     15  C   LIG    1        2.881  -2.475   3.680  0.00  0.00    +0.030 C 
ATOM     16  C   LIG    1        2.950  -3.365   4.922  0.00  0.00    +0.030 C 
ENDBRANCH  14  15
ENDBRANCH   1  14
TORSDOF 9
ENDMDL
MODEL      661
REMARK  Name = ZINC000648727241
REMARK                            x       y       z     vdW  Elec       q    Type
REMARK                         _______ _______ _______ _____ _____    ______ ____
ROOT
ATOM      1  N   LIG    1        2.842  -2.686   2.541  0.00  0.00    -0.510 N 
ATOM      2  H   LIG    1        3.329  -1.923   2.094  0.00  0.00    +0.430 HD
ATOM      3  H   LIG    1        2.768  -3.460   1.899  0.00  0.00    +0.430 HD
ENDROOT
BRANCH   1   4
ATOM      4  C   LIG    1        3.586  -3.109   3.735  0.00  0.00    +0.170 C 
ATOM      5  C   LIG    1        2.916  -4.344   4.342  0.00  0.00    +0.090 C 
BRANCH   4   6
ATOM      6  C   LIG    1        5.026  -3.449   3.345  0.00  0.00    +0.060 C 
BRANCH   6   7
ATOM      7  C   LIG    1        5.733  -2.185   2.854  0.00  0.00    +0.050 C 
BRANCH   7   8
ATOM      8  C   LIG    1        7.152  -2.520   2.470  0.00  0.00    -0.090 C 
ATOM      9  C   LIG    1        8.148  -1.847   2.989  0.00  0.00    -0.100 C 
ATOM     10  C   LIG    1        9.568  -2.270   2.716  0.00  0.00    +0.080 C 
ATOM     11  C   LIG    1        7.874  -0.648   3.861  0.00  0.00    +0.070 C 
ENDBRANCH   7   8
ENDBRANCH   6   7
ENDBRANCH   4   6
ENDBRANCH   1   4
BRANCH   1  12
ATOM     12  C   LIG    1        1.496  -2.245   2.933  0.00  0.00    +0.250 C 
BRANCH  12  13
ATOM     13  C   LIG    1        0.722  -1.804   1.690  0.00  0.00    +0.070 C 
BRANCH  13  15
ATOM     14  C   LIG    1       -0.895  -0.082   2.306  0.00  0.00    +0.050 C 
ATOM     15  C   LIG    1       -0.658  -1.352   2.092  0.00  0.00    -0.150 C 
ATOM     16  C   LIG    1       -1.766  -2.362   2.247  0.00  0.00    +0.080 C 
ENDBRANCH  13  15
ENDBRANCH  12  13
ENDBRANCH   1  12
TORSDOF 7
ENDMDL
MODEL      662
REMARK  Name = ZINC000308593856
REMARK                            x       y       z     vdW  Elec       q    Type
REMARK                         _______ _______ _______ _____ _____    ______ ____
ROOT
ATOM      1  C   LIG    1        2.711  -2.439   1.094  0.00  0.00    +0.160 C 
ENDROOT
BRANCH   1   2
ATOM      2  N   LIG    1        2.755  -3.193  -0.166  0.00  0.00    -0.500 N 
ATOM      3  H   LIG    1        2.018  -3.882  -0.171  0.00  0.00    +0.430 HD
ATOM      4  H   LIG    1        3.648  -3.655  -0.250  0.00  0.00    +0.420 HD
BRANCH   2   5
ATOM      5  C   LIG    1        2.573  -2.271  -1.295  0.00  0.00    +0.190 C 
ATOM      6  C   LIG    1        3.778  -1.334  -1.388  0.00  0.00    +0.090 C 
BRANCH   5   7
ATOM      7  C   LIG    1        2.447  -3.072  -2.592  0.00  0.00    -0.080 C 
ATOM      8  C   LIG    1        1.086  -3.079  -3.290  0.00  0.00    +0.050 C 
ATOM      9  C   LIG    1        2.250  -2.288  -3.891  0.00  0.00    +0.070 C 
ENDBRANCH   5   7
ENDBRANCH   2   5
ENDBRANCH   1   2
BRANCH   1  10
ATOM     10  C   LIG    1        1.269  -2.374   1.600  0.00  0.00    +0.060 C 
BRANCH  10  11
ATOM     11  C   LIG    1        0.410  -1.602   0.595  0.00  0.00    +0.040 C 
BRANCH  11  13
ATOM     12  C   LIG    1       -1.495  -0.223   1.250  0.00  0.00    +0.050 C 
ATOM     13  C   LIG    1       -0.978  -1.423   1.154  0.00  0.00    -0.060 C 
ENDBRANCH  11  13
ENDBRANCH  10  11
ENDBRANCH   1  10
BRANCH   1  14
ATOM     14  C   LIG    1        3.586  -3.137   2.137  0.00  0.00    +0.050 C 
BRANCH  14  15
ATOM     15  C   LIG    1        5.049  -3.086   1.692  0.00  0.00    -0.010 C 
ATOM     16  C   LIG    1        5.909  -3.884   2.674  0.00  0.00    +0.040 C 
ENDBRANCH  14  15
ENDBRANCH   1  14
TORSDOF 8
ENDMDL
MODEL      663
REMARK  Name = ZINC000308593855
REMARK                            x       y       z     vdW  Elec       q    Type
REMARK                         _______ _______ _______ _____ _____    ______ ____
ROOT
ATOM      1  C   LIG    1        2.844  -2.468   1.099  0.00  0.00    +0.160 C 
ENDROOT
BRANCH   1   2
ATOM      2  N   LIG    1        2.635  -3.369  -0.041  0.00  0.00    -0.500 N 
ATOM      3  H   LIG    1        2.438  -2.826  -0.868  0.00  0.00    +0.420 HD
ATOM      4  H   LIG    1        1.857  -3.982   0.152  0.00  0.00    +0.430 HD
BRANCH   2   5
ATOM      5  C   LIG    1        3.847  -4.171  -0.260  0.00  0.00    +0.200 C 
ATOM      6  C   LIG    1        4.993  -3.254  -0.692  0.00  0.00    +0.090 C 
BRANCH   5   7
ATOM      7  C   LIG    1        3.583  -5.207  -1.353  0.00  0.00    -0.080 C 
ATOM      8  C   LIG    1        4.398  -5.097  -2.643  0.00  0.00    +0.050 C 
ATOM      9  C   LIG    1        4.690  -6.221  -1.648  0.00  0.00    +0.070 C 
ENDBRANCH   5   7
ENDBRANCH   2   5
ENDBRANCH   1   2
BRANCH   1  10
ATOM     10  C   LIG    1        1.643  -1.529   1.234  0.00  0.00    +0.070 C 
BRANCH  10  11
ATOM     11  C   LIG    1        1.567  -0.619   0.006  0.00  0.00    +0.040 C 
BRANCH  11  13
ATOM     12  C   LIG    1        0.554   1.602   0.052  0.00  0.00    +0.050 C 
ATOM     13  C   LIG    1        0.385   0.306   0.138  0.00  0.00    -0.070 C 
ENDBRANCH  11  13
ENDBRANCH  10  11
ENDBRANCH   1  10
BRANCH   1  14
ATOM     14  C   LIG    1        2.993  -3.291   2.380  0.00  0.00    +0.040 C 
BRANCH  14  15
ATOM     15  C   LIG    1        3.314  -2.360   3.551  0.00  0.00    +0.030 C 
ATOM     16  C   LIG    1        3.591  -3.193   4.804  0.00  0.00    +0.030 C 
ENDBRANCH  14  15
ENDBRANCH   1  14
TORSDOF 8
ENDMDL
MODEL      664
REMARK  Name = ZINC000648733044
REMARK                            x       y       z     vdW  Elec       q    Type
REMARK                         _______ _______ _______ _____ _____    ______ ____
ROOT
ATOM      1  N   LIG    1        3.949  -1.572   1.236  0.00  0.00    -0.510 N 
ATOM      2  H   LIG    1        4.101  -1.235   2.175  0.00  0.00    +0.420 HD
ATOM      3  H   LIG    1        3.944  -0.793   0.596  0.00  0.00    +0.420 HD
ENDROOT
BRANCH   1   4
ATOM      4  C   LIG    1        2.659  -2.271   1.169  0.00  0.00    +0.160 C 
BRANCH   4   5
ATOM      5  C   LIG    1        2.615  -3.365   2.238  0.00  0.00    +0.030 C 
ATOM      6  C   LIG    1        1.334  -4.186   2.074  0.00  0.00    +0.060 C 
ENDBRANCH   4   5
BRANCH   4   7
ATOM      7  C   LIG    1        1.525  -1.272   1.414  0.00  0.00    +0.060 C 
BRANCH   7   8
ATOM      8  C   LIG    1        1.492  -0.250   0.277  0.00  0.00    +0.050 C 
BRANCH   8  10
ATOM      9  C   LIG    1        0.629   2.018   0.546  0.00  0.00    +0.040 C 
ATOM     10  C   LIG    1        0.376   0.734   0.518  0.00  0.00    -0.050 C 
ENDBRANCH   8  10
ENDBRANCH   7   8
ENDBRANCH   4   7
ENDBRANCH   1   4
BRANCH   1  11
ATOM     11  C   LIG    1        5.028  -2.500   0.869  0.00  0.00    +0.270 C 
BRANCH  11  12
ATOM     12  C   LIG    1        6.357  -1.745   0.826  0.00  0.00    -0.050 C 
ATOM     13  C   LIG    1        6.648  -1.145   2.203  0.00  0.00    +0.060 C 
ATOM     14  C   LIG    1        6.274  -0.624  -0.212  0.00  0.00    +0.050 C 
BRANCH  12  15
ATOM     15  C   LIG    1        7.464  -2.696   0.449  0.00  0.00    -0.050 C 
ATOM     16  C   LIG    1        8.173  -2.481  -0.631  0.00  0.00    +0.070 C 
ENDBRANCH  12  15
ENDBRANCH  11  12
ENDBRANCH   1  11
TORSDOF 8
ENDMDL
MODEL      665
REMARK  Name = ZINC000648733043
REMARK                            x       y       z     vdW  Elec       q    Type
REMARK                         _______ _______ _______ _____ _____    ______ ____
ROOT
ATOM      1  N   LIG    1        2.625  -3.324   0.004  0.00  0.00    -0.510 N 
ATOM      2  H   LIG    1        2.566  -2.743  -0.819  0.00  0.00    +0.420 HD
ATOM      3  H   LIG    1        1.791  -3.887   0.079  0.00  0.00    +0.420 HD
ENDROOT
BRANCH   1   4
ATOM      4  C   LIG    1        2.749  -2.473   1.195  0.00  0.00    +0.160 C 
BRANCH   4   5
ATOM      5  C   LIG    1        2.679  -3.342   2.453  0.00  0.00    +0.030 C 
ATOM      6  C   LIG    1        2.888  -2.467   3.690  0.00  0.00    +0.060 C 
ENDBRANCH   4   5
BRANCH   4   7
ATOM      7  C   LIG    1        1.608  -1.454   1.216  0.00  0.00    +0.070 C 
BRANCH   7   8
ATOM      8  C   LIG    1        1.751  -0.505   0.024  0.00  0.00    +0.040 C 
BRANCH   8  10
ATOM      9  C   LIG    1        0.893   1.781   0.029  0.00  0.00    +0.050 C 
ATOM     10  C   LIG    1        0.627   0.499   0.044  0.00  0.00    -0.070 C 
ENDBRANCH   8  10
ENDBRANCH   7   8
ENDBRANCH   4   7
ENDBRANCH   1   4
BRANCH   1  11
ATOM     11  C   LIG    1        3.800  -4.200  -0.097  0.00  0.00    +0.270 C 
BRANCH  11  12
ATOM     12  C   LIG    1        3.631  -5.143  -1.289  0.00  0.00    -0.050 C 
ATOM     13  C   LIG    1        3.495  -4.323  -2.574  0.00  0.00    +0.060 C 
ATOM     14  C   LIG    1        2.375  -5.995  -1.093  0.00  0.00    +0.050 C 
BRANCH  12  15
ATOM     15  C   LIG    1        4.836  -6.042  -1.393  0.00  0.00    -0.050 C 
ATOM     16  C   LIG    1        4.693  -7.342  -1.311  0.00  0.00    +0.070 C 
ENDBRANCH  12  15
ENDBRANCH  11  12
ENDBRANCH   1  11
TORSDOF 8
ENDMDL
MODEL      666
REMARK  Name = ZINC000308593854
REMARK                            x       y       z     vdW  Elec       q    Type
REMARK                         _______ _______ _______ _____ _____    ______ ____
ROOT
ATOM      1  C   LIG    1        2.860  -2.471   1.281  0.00  0.00    +0.160 C 
ENDROOT
BRANCH   1   2
ATOM      2  N   LIG    1        3.925  -1.464   1.185  0.00  0.00    -0.500 N 
ATOM      3  H   LIG    1        4.055  -1.025   2.084  0.00  0.00    +0.430 HD
ATOM      4  H   LIG    1        3.666  -0.765   0.504  0.00  0.00    +0.420 HD
BRANCH   2   5
ATOM      5  C   LIG    1        5.176  -2.111   0.770  0.00  0.00    +0.200 C 
ATOM      6  C   LIG    1        5.025  -2.649  -0.654  0.00  0.00    +0.090 C 
BRANCH   5   7
ATOM      7  C   LIG    1        6.317  -1.092   0.812  0.00  0.00    -0.080 C 
ATOM      8  C   LIG    1        7.396  -1.283   1.880  0.00  0.00    +0.050 C 
ATOM      9  C   LIG    1        7.712  -1.576   0.412  0.00  0.00    +0.070 C 
ENDBRANCH   5   7
ENDBRANCH   2   5
ENDBRANCH   1   2
BRANCH   1  10
ATOM     10  C   LIG    1        1.529  -1.780   1.580  0.00  0.00    +0.070 C 
BRANCH  10  11
ATOM     11  C   LIG    1        1.139  -0.890   0.397  0.00  0.00    +0.050 C 
BRANCH  11  13
ATOM     12  C   LIG    1       -0.262   1.096   0.626  0.00  0.00    +0.040 C 
ATOM     13  C   LIG    1       -0.172  -0.209   0.692  0.00  0.00    -0.050 C 
ENDBRANCH  11  13
ENDBRANCH  10  11
ENDBRANCH   1  10
BRANCH   1  14
ATOM     14  C   LIG    1        3.188  -3.454   2.406  0.00  0.00    +0.040 C 
BRANCH  14  15
ATOM     15  C   LIG    1        2.155  -4.583   2.415  0.00  0.00    +0.030 C 
ATOM     16  C   LIG    1        2.435  -5.521   3.591  0.00  0.00    +0.030 C 
ENDBRANCH  14  15
ENDBRANCH   1  14
TORSDOF 8
ENDMDL
MODEL      667
REMARK  Name = ZINC000308593857
REMARK                            x       y       z     vdW  Elec       q    Type
REMARK                         _______ _______ _______ _____ _____    ______ ____
ROOT
ATOM      1  C   LIG    1        2.892  -2.468   0.942  0.00  0.00    +0.160 C 
ENDROOT
BRANCH   1   2
ATOM      2  N   LIG    1        4.086  -1.637   1.144  0.00  0.00    -0.500 N 
ATOM      3  H   LIG    1        4.887  -2.231   1.297  0.00  0.00    +0.420 HD
ATOM      4  H   LIG    1        3.950  -1.043   1.948  0.00  0.00    +0.430 HD
BRANCH   2   5
ATOM      5  C   LIG    1        4.312  -0.807  -0.046  0.00  0.00    +0.200 C 
ATOM      6  C   LIG    1        4.652  -1.705  -1.238  0.00  0.00    +0.090 C 
BRANCH   5   7
ATOM      7  C   LIG    1        5.473   0.154   0.215  0.00  0.00    -0.080 C 
ATOM      8  C   LIG    1        6.727  -0.002  -0.647  0.00  0.00    +0.050 C 
ATOM      9  C   LIG    1        5.791   1.189  -0.866  0.00  0.00    +0.070 C 
ENDBRANCH   5   7
ENDBRANCH   2   5
ENDBRANCH   1   2
BRANCH   1  10
ATOM     10  C   LIG    1        1.675  -1.769   1.551  0.00  0.00    +0.070 C 
BRANCH  10  11
ATOM     11  C   LIG    1        1.367  -0.498   0.757  0.00  0.00    +0.040 C 
BRANCH  11  13
ATOM     12  C   LIG    1        0.103   1.377   1.678  0.00  0.00    +0.040 C 
ATOM     13  C   LIG    1        0.101   0.128   1.282  0.00  0.00    -0.050 C 
ENDBRANCH  11  13
ENDBRANCH  10  11
ENDBRANCH   1  10
BRANCH   1  14
ATOM     14  C   LIG    1        3.093  -3.825   1.621  0.00  0.00    +0.050 C 
BRANCH  14  15
ATOM     15  C   LIG    1        4.219  -4.585   0.917  0.00  0.00    -0.000 C 
ATOM     16  C   LIG    1        4.337  -5.989   1.513  0.00  0.00    +0.030 C 
ENDBRANCH  14  15
ENDBRANCH   1  14
TORSDOF 8
ENDMDL
MODEL      668
REMARK  Name = ZINC000308698457
REMARK                            x       y       z     vdW  Elec       q    Type
REMARK                         _______ _______ _______ _____ _____    ______ ____
ROOT
ATOM      1  N   LIG    1        3.935  -1.538   1.230  0.00  0.00    -0.500 N 
ATOM      2  H   LIG    1        4.059  -1.097   2.129  0.00  0.00    +0.430 HD
ATOM      3  H   LIG    1        3.724  -0.836   0.537  0.00  0.00    +0.420 HD
ENDROOT
BRANCH   1   4
ATOM      4  C   LIG    1        5.169  -2.241   0.855  0.00  0.00    +0.160 C 
ATOM      5  C   LIG    1        5.103  -2.700  -0.623  0.00  0.00    +0.040 C 
ATOM      6  C   LIG    1        6.598  -2.835  -1.006  0.00  0.00    +0.050 C 
ATOM      7  C   LIG    1        7.282  -1.656  -0.284  0.00  0.00    +0.000 C 
ATOM      8  C   LIG    1        8.660  -2.082   0.227  0.00  0.00    +0.040 C 
ATOM      9  C   LIG    1        6.374  -1.279   0.902  0.00  0.00    +0.040 C 
ENDBRANCH   1   4
BRANCH   1  10
ATOM     10  C   LIG    1        2.828  -2.500   1.306  0.00  0.00    +0.160 C 
BRANCH  10  11
ATOM     11  C   LIG    1        3.084  -3.484   2.450  0.00  0.00    +0.040 C 
ATOM     12  C   LIG    1        2.007  -4.570   2.439  0.00  0.00    +0.060 C 
ENDBRANCH  10  11
BRANCH  10  13
ATOM     13  C   LIG    1        1.518  -1.751   1.562  0.00  0.00    +0.070 C 
BRANCH  13  14
ATOM     14  C   LIG    1        1.198  -0.860   0.360  0.00  0.00    +0.050 C 
BRANCH  14  16
ATOM     15  C   LIG    1       -0.126   1.185   0.532  0.00  0.00    +0.040 C 
ATOM     16  C   LIG    1       -0.092  -0.122   0.612  0.00  0.00    -0.050 C 
ENDBRANCH  14  16
ENDBRANCH  13  14
ENDBRANCH  10  13
ENDBRANCH   1  10
TORSDOF 6
ENDMDL
MODEL      669
REMARK  Name = ZINC000308698454
REMARK                            x       y       z     vdW  Elec       q    Type
REMARK                         _______ _______ _______ _____ _____    ______ ____
ROOT
ATOM      1  N   LIG    1        3.935  -1.537   1.230  0.00  0.00    -0.500 N 
ATOM      2  H   LIG    1        4.060  -1.096   2.128  0.00  0.00    +0.430 HD
ATOM      3  H   LIG    1        3.723  -0.835   0.537  0.00  0.00    +0.420 HD
ENDROOT
BRANCH   1   4
ATOM      4  C   LIG    1        5.169  -2.239   0.853  0.00  0.00    +0.160 C 
ATOM      5  C   LIG    1        5.103  -2.696  -0.619  0.00  0.00    +0.030 C 
ATOM      6  C   LIG    1        6.515  -2.510  -1.201  0.00  0.00    +0.040 C 
ATOM      7  C   LIG    1        7.390  -1.946  -0.062  0.00  0.00    +0.000 C 
ATOM      8  C   LIG    1        8.382  -0.917  -0.609  0.00  0.00    +0.040 C 
ATOM      9  C   LIG    1        6.378  -1.272   0.900  0.00  0.00    +0.050 C 
ENDBRANCH   1   4
BRANCH   1  10
ATOM     10  C   LIG    1        2.828  -2.500   1.306  0.00  0.00    +0.160 C 
BRANCH  10  11
ATOM     11  C   LIG    1        3.086  -3.483   2.450  0.00  0.00    +0.040 C 
ATOM     12  C   LIG    1        2.009  -4.570   2.441  0.00  0.00    +0.060 C 
ENDBRANCH  10  11
BRANCH  10  13
ATOM     13  C   LIG    1        1.518  -1.752   1.562  0.00  0.00    +0.070 C 
BRANCH  13  14
ATOM     14  C   LIG    1        1.197  -0.861   0.361  0.00  0.00    +0.050 C 
BRANCH  14  16
ATOM     15  C   LIG    1       -0.128   1.184   0.532  0.00  0.00    +0.040 C 
ATOM     16  C   LIG    1       -0.093  -0.123   0.613  0.00  0.00    -0.050 C 
ENDBRANCH  14  16
ENDBRANCH  13  14
ENDBRANCH  10  13
ENDBRANCH   1  10
TORSDOF 6
ENDMDL
MODEL      670
REMARK  Name = ZINC000308698461
REMARK                            x       y       z     vdW  Elec       q    Type
REMARK                         _______ _______ _______ _____ _____    ______ ____
ROOT
ATOM      1  N   LIG    1        3.651  -1.530   1.226  0.00  0.00    -0.510 N 
ATOM      2  H   LIG    1        3.546  -1.317   2.207  0.00  0.00    +0.420 HD
ATOM      3  H   LIG    1        3.631  -0.675   0.692  0.00  0.00    +0.430 HD
ENDROOT
BRANCH   1   4
ATOM      4  C   LIG    1        4.934  -2.213   1.009  0.00  0.00    +0.160 C 
ATOM      5  C   LIG    1        5.162  -3.270   2.109  0.00  0.00    +0.040 C 
ATOM      6  C   LIG    1        6.684  -3.203   2.391  0.00  0.00    +0.050 C 
ATOM      7  C   LIG    1        6.984  -1.687   2.283  0.00  0.00    -0.020 C 
ATOM      8  C   LIG    1        8.461  -1.456   1.959  0.00  0.00    +0.040 C 
ATOM      9  C   LIG    1        6.092  -1.206   1.119  0.00  0.00    +0.040 C 
ENDBRANCH   1   4
BRANCH   1  10
ATOM     10  C   LIG    1        2.552  -2.404   0.794  0.00  0.00    +0.170 C 
BRANCH  10  11
ATOM     11  C   LIG    1        2.815  -2.886  -0.633  0.00  0.00    +0.050 C 
ATOM     12  C   LIG    1        2.904  -1.681  -1.571  0.00  0.00    +0.020 C 
ENDBRANCH  10  11
BRANCH  10  13
ATOM     13  C   LIG    1        2.461  -3.610   1.732  0.00  0.00    +0.060 C 
BRANCH  13  14
ATOM     14  C   LIG    1        2.174  -3.129   3.155  0.00  0.00    +0.040 C 
BRANCH  14  16
ATOM     15  C   LIG    1        2.693  -4.451   5.141  0.00  0.00    +0.040 C 
ATOM     16  C   LIG    1        1.970  -4.319   4.057  0.00  0.00    -0.050 C 
ENDBRANCH  14  16
ENDBRANCH  13  14
ENDBRANCH  10  13
ENDBRANCH   1  10
TORSDOF 6
ENDMDL
MODEL      671
REMARK  Name = ZINC000052338686
REMARK                            x       y       z     vdW  Elec       q    Type
REMARK                         _______ _______ _______ _____ _____    ______ ____
ROOT
ATOM      1  C   LIG    1        3.003  -1.762   1.233  0.00  0.00    +0.170 C 
ENDROOT
BRANCH   1   2
ATOM      2  C   LIG    1        3.412  -2.138   2.659  0.00  0.00    -0.020 C 
ATOM      3  C   LIG    1        2.393  -3.121   3.239  0.00  0.00    +0.000 C 
ATOM      4  C   LIG    1        2.802  -3.496   4.665  0.00  0.00    +0.020 C 
ATOM      5  C   LIG    1        4.186  -4.149   4.644  0.00  0.00    +0.010 C 
ATOM      6  C   LIG    1        5.205  -3.166   4.063  0.00  0.00    +0.020 C 
ATOM      7  C   LIG    1        4.796  -2.791   2.638  0.00  0.00    +0.040 C 
ENDBRANCH   1   2
BRANCH   1   8
ATOM      8  N   LIG    1        1.731  -1.029   1.265  0.00  0.00    -0.510 N 
ATOM      9  H   LIG    1        1.415  -0.862   0.322  0.00  0.00    +0.430 HD
ATOM     10  H   LIG    1        1.041  -1.575   1.759  0.00  0.00    +0.420 HD
BRANCH   8  11
ATOM     11  C   LIG    1        1.923   0.255   1.953  0.00  0.00    +0.300 C 
BRANCH  11  13
ATOM     12  C   LIG    1       -0.212   1.021   2.856  0.00  0.00    +0.120 C 
ATOM     13  C   LIG    1        0.653   1.062   1.873  0.00  0.00    -0.200 C 
ATOM     14  C   LIG    1        0.378   1.916   0.662  0.00  0.00    +0.100 C 
ENDBRANCH  11  13
ENDBRANCH   8  11
ENDBRANCH   1   8
BRANCH   1  15
ATOM     15  C   LIG    1        2.838  -3.034   0.398  0.00  0.00    +0.060 C 
ATOM     16  C   LIG    1        2.559  -2.656  -1.058  0.00  0.00    +0.020 C 
ENDBRANCH   1  15
TORSDOF 5
ENDMDL
MODEL      672
REMARK  Name = ZINC000052338684
REMARK                            x       y       z     vdW  Elec       q    Type
REMARK                         _______ _______ _______ _____ _____    ______ ____
ROOT
ATOM      1  C   LIG    1        3.175  -1.921   1.126  0.00  0.00    +0.170 C 
ENDROOT
BRANCH   1   2
ATOM      2  C   LIG    1        3.645  -2.557   2.436  0.00  0.00    -0.010 C 
ATOM      3  C   LIG    1        2.767  -3.767   2.759  0.00  0.00    +0.010 C 
ATOM      4  C   LIG    1        3.238  -4.403   4.069  0.00  0.00    +0.020 C 
ATOM      5  C   LIG    1        4.693  -4.853   3.923  0.00  0.00    +0.010 C 
ATOM      6  C   LIG    1        5.571  -3.642   3.600  0.00  0.00    +0.020 C 
ATOM      7  C   LIG    1        5.101  -3.006   2.290  0.00  0.00    +0.040 C 
ENDBRANCH   1   2
BRANCH   1   8
ATOM      8  N   LIG    1        1.778  -1.489   1.265  0.00  0.00    -0.510 N 
ATOM      9  H   LIG    1        1.481  -1.031   0.417  0.00  0.00    +0.430 HD
ATOM     10  H   LIG    1        1.193  -2.293   1.436  0.00  0.00    +0.430 HD
BRANCH   8  11
ATOM     11  C   LIG    1        1.664  -0.554   2.392  0.00  0.00    +0.300 C 
BRANCH  11  13
ATOM     12  C   LIG    1       -0.569  -0.718   3.365  0.00  0.00    +0.120 C 
ATOM     13  C   LIG    1        0.232  -0.104   2.530  0.00  0.00    -0.200 C 
ATOM     14  C   LIG    1       -0.277   1.051   1.707  0.00  0.00    +0.100 C 
ENDBRANCH  11  13
ENDBRANCH   8  11
ENDBRANCH   1   8
BRANCH   1  15
ATOM     15  C   LIG    1        4.053  -0.710   0.803  0.00  0.00    +0.060 C 
ATOM     16  C   LIG    1        3.651  -0.138  -0.558  0.00  0.00    +0.020 C 
ENDBRANCH   1  15
TORSDOF 5
ENDMDL
MODEL      673
REMARK  Name = ZINC000308654866
REMARK                            x       y       z     vdW  Elec       q    Type
REMARK                         _______ _______ _______ _____ _____    ______ ____
ROOT
ATOM      1  C   LIG    1       -3.817  -4.305  -2.450  0.00  0.00    +0.160 C 
ATOM      2  C   LIG    1       -3.494  -5.352  -3.517  0.00  0.00    +0.090 C 
ENDROOT
BRANCH   1   3
ATOM      3  N   LIG    1       -3.986  -4.968  -1.149  0.00  0.00    -0.500 N 
ATOM      4  H   LIG    1       -4.104  -4.270  -0.429  0.00  0.00    +0.420 HD
ATOM      5  H   LIG    1       -3.169  -5.525  -0.947  0.00  0.00    +0.430 HD
BRANCH   3   6
ATOM      6  C   LIG    1       -5.171  -5.834  -1.191  0.00  0.00    +0.200 C 
ATOM      7  C   LIG    1       -5.266  -6.631   0.112  0.00  0.00    +0.090 C 
BRANCH   6   8
ATOM      8  C   LIG    1       -6.426  -4.974  -1.355  0.00  0.00    -0.090 C 
ATOM      9  C   LIG    1       -7.179  -5.069  -2.683  0.00  0.00    +0.050 C 
ATOM     10  C   LIG    1       -7.774  -5.695  -1.420  0.00  0.00    +0.070 C 
ENDBRANCH   6   8
ENDBRANCH   3   6
ENDBRANCH   1   3
BRANCH   1  11
ATOM     11  C   LIG    1       -2.672  -3.295  -2.363  0.00  0.00    +0.050 C 
BRANCH  11  12
ATOM     12  C   LIG    1       -3.049  -2.179  -1.386  0.00  0.00    +0.010 C 
BRANCH  12  13
ATOM     13  C   LIG    1       -1.903  -1.169  -1.299  0.00  0.00    +0.020 C 
BRANCH  13  14
ATOM     14  C   LIG    1       -2.280  -0.053  -0.323  0.00  0.00    +0.050 C 
BRANCH  14  16
ATOM     15  C   LIG    1       -1.378   2.211  -0.471  0.00  0.00    +0.020 C 
ATOM     16  C   LIG    1       -1.151   0.942  -0.237  0.00  0.00    -0.060 C 
ENDBRANCH  14  16
ENDBRANCH  13  14
ENDBRANCH  12  13
ENDBRANCH  11  12
ENDBRANCH   1  11
TORSDOF 8
ENDMDL
MODEL      674
REMARK  Name = ZINC000308654868
REMARK                            x       y       z     vdW  Elec       q    Type
REMARK                         _______ _______ _______ _____ _____    ______ ____
ROOT
ATOM      1  C   LIG    1       -3.974  -4.272  -2.346  0.00  0.00    +0.160 C 
ATOM      2  C   LIG    1       -3.948  -5.324  -3.457  0.00  0.00    +0.090 C 
ENDROOT
BRANCH   1   3
ATOM      3  N   LIG    1       -5.095  -3.350  -2.571  0.00  0.00    -0.500 N 
ATOM      4  H   LIG    1       -5.025  -2.955  -3.497  0.00  0.00    +0.430 HD
ATOM      5  H   LIG    1       -5.063  -2.609  -1.887  0.00  0.00    +0.420 HD
BRANCH   3   6
ATOM      6  C   LIG    1       -6.363  -4.080  -2.444  0.00  0.00    +0.200 C 
ATOM      7  C   LIG    1       -6.526  -4.572  -1.005  0.00  0.00    +0.090 C 
BRANCH   6   8
ATOM      8  C   LIG    1       -7.525  -3.150  -2.800  0.00  0.00    -0.080 C 
ATOM      9  C   LIG    1       -8.296  -3.445  -4.088  0.00  0.00    +0.050 C 
ATOM     10  C   LIG    1       -8.939  -3.728  -2.729  0.00  0.00    +0.070 C 
ENDBRANCH   6   8
ENDBRANCH   3   6
ENDBRANCH   1   3
BRANCH   1  11
ATOM     11  C   LIG    1       -2.659  -3.489  -2.355  0.00  0.00    +0.050 C 
BRANCH  11  12
ATOM     12  C   LIG    1       -2.633  -2.524  -1.168  0.00  0.00    -0.000 C 
BRANCH  12  13
ATOM     13  C   LIG    1       -1.319  -1.741  -1.176  0.00  0.00    +0.020 C 
BRANCH  13  14
ATOM     14  C   LIG    1       -1.293  -0.775   0.010  0.00  0.00    +0.050 C 
BRANCH  14  16
ATOM     15  C   LIG    1       -0.016   1.306   0.009  0.00  0.00    +0.020 C 
ATOM     16  C   LIG    1        0.002  -0.004   0.002  0.00  0.00    -0.060 C 
ENDBRANCH  14  16
ENDBRANCH  13  14
ENDBRANCH  12  13
ENDBRANCH  11  12
ENDBRANCH   1  11
TORSDOF 8
ENDMDL
MODEL      675
REMARK  Name = ZINC000308662564
REMARK                            x       y       z     vdW  Elec       q    Type
REMARK                         _______ _______ _______ _____ _____    ______ ____
ROOT
ATOM      1  N   LIG    1        2.383  -3.866   2.502  0.00  0.00    -0.510 N 
ATOM      2  H   LIG    1        1.921  -4.762   2.545  0.00  0.00    +0.420 HD
ATOM      3  H   LIG    1        2.278  -3.391   3.386  0.00  0.00    +0.420 HD
ENDROOT
BRANCH   1   4
ATOM      4  C   LIG    1        1.782  -3.054   1.436  0.00  0.00    +0.170 C 
ATOM      5  C   LIG    1        1.395  -3.958   0.263  0.00  0.00    +0.090 C 
BRANCH   4   6
ATOM      6  C   LIG    1        0.532  -2.353   1.972  0.00  0.00    -0.010 C 
ATOM      7  C   LIG    1        0.919  -1.448   3.144  0.00  0.00    +0.040 C 
BRANCH   6   8
ATOM      8  C   LIG    1       -0.094  -1.507   0.861  0.00  0.00    +0.080 C 
BRANCH   8  10
ATOM      9  C   LIG    1       -1.579   0.381   1.298  0.00  0.00    +0.030 C 
ATOM     10  C   LIG    1       -1.390  -0.914   1.351  0.00  0.00    -0.060 C 
ENDBRANCH   8  10
ENDBRANCH   6   8
ENDBRANCH   4   6
ENDBRANCH   1   4
BRANCH   1  11
ATOM     11  C   LIG    1        3.811  -4.064   2.220  0.00  0.00    +0.170 C 
ATOM     12  C   LIG    1        3.968  -4.904   0.951  0.00  0.00    +0.090 C 
BRANCH  11  13
ATOM     13  C   LIG    1        4.467  -4.791   3.396  0.00  0.00    -0.080 C 
ATOM     14  C   LIG    1        4.310  -3.952   4.666  0.00  0.00    +0.040 C 
ATOM     15  C   LIG    1        5.954  -4.998   3.102  0.00  0.00    +0.070 C 
ATOM     16  C   LIG    1        3.793  -6.150   3.596  0.00  0.00    +0.040 C 
ENDBRANCH  11  13
ENDBRANCH   1  11
TORSDOF 6
ENDMDL
MODEL      676
REMARK  Name = ZINC000308662560
REMARK                            x       y       z     vdW  Elec       q    Type
REMARK                         _______ _______ _______ _____ _____    ______ ____
ROOT
ATOM      1  N   LIG    1        2.642  -3.570   2.133  0.00  0.00    -0.510 N 
ATOM      2  H   LIG    1        1.798  -4.119   2.066  0.00  0.00    +0.420 HD
ATOM      3  H   LIG    1        2.679  -3.119   3.034  0.00  0.00    +0.420 HD
ENDROOT
BRANCH   1   4
ATOM      4  C   LIG    1        2.649  -2.552   1.074  0.00  0.00    +0.160 C 
ATOM      5  C   LIG    1        3.865  -1.641   1.250  0.00  0.00    +0.090 C 
BRANCH   4   6
ATOM      6  C   LIG    1        1.370  -1.717   1.161  0.00  0.00    -0.020 C 
ATOM      7  C   LIG    1        1.360  -0.934   2.476  0.00  0.00    +0.050 C 
BRANCH   6   8
ATOM      8  C   LIG    1        1.317  -0.740  -0.015  0.00  0.00    +0.080 C 
BRANCH   8  10
ATOM      9  C   LIG    1       -0.016   1.306   0.009  0.00  0.00    +0.030 C 
ATOM     10  C   LIG    1        0.002  -0.004   0.002  0.00  0.00    -0.060 C 
ENDBRANCH   8  10
ENDBRANCH   6   8
ENDBRANCH   4   6
ENDBRANCH   1   4
BRANCH   1  11
ATOM     11  C   LIG    1        3.810  -4.447   1.976  0.00  0.00    +0.170 C 
ATOM     12  C   LIG    1        3.691  -5.226   0.665  0.00  0.00    +0.080 C 
BRANCH  11  13
ATOM     13  C   LIG    1        3.872  -5.429   3.148  0.00  0.00    -0.080 C 
ATOM     14  C   LIG    1        3.991  -4.650   4.460  0.00  0.00    +0.040 C 
ATOM     15  C   LIG    1        5.089  -6.342   2.985  0.00  0.00    +0.070 C 
ATOM     16  C   LIG    1        2.598  -6.276   3.172  0.00  0.00    +0.040 C 
ENDBRANCH  11  13
ENDBRANCH   1  11
TORSDOF 6
ENDMDL
MODEL      677
REMARK  Name = ZINC000308654869
REMARK                            x       y       z     vdW  Elec       q    Type
REMARK                         _______ _______ _______ _____ _____    ______ ____
ROOT
ATOM      1  C   LIG    1       -3.974  -4.272  -2.346  0.00  0.00    +0.160 C 
ATOM      2  C   LIG    1       -4.055  -5.146  -3.600  0.00  0.00    +0.090 C 
ENDROOT
BRANCH   1   3
ATOM      3  N   LIG    1       -4.029  -5.124  -1.151  0.00  0.00    -0.500 N 
ATOM      4  H   LIG    1       -3.893  -4.557  -0.327  0.00  0.00    +0.420 HD
ATOM      5  H   LIG    1       -3.302  -5.822  -1.202  0.00  0.00    +0.430 HD
BRANCH   3   6
ATOM      6  C   LIG    1       -5.339  -5.785  -1.080  0.00  0.00    +0.200 C 
ATOM      7  C   LIG    1       -6.430  -4.732  -0.877  0.00  0.00    +0.090 C 
BRANCH   6   8
ATOM      8  C   LIG    1       -5.353  -6.766   0.094  0.00  0.00    -0.080 C 
ATOM      9  C   LIG    1       -6.332  -6.488   1.236  0.00  0.00    +0.050 C 
ATOM     10  C   LIG    1       -6.594  -7.643   0.267  0.00  0.00    +0.070 C 
ENDBRANCH   6   8
ENDBRANCH   3   6
ENDBRANCH   1   3
BRANCH   1  11
ATOM     11  C   LIG    1       -2.659  -3.489  -2.355  0.00  0.00    +0.050 C 
BRANCH  11  12
ATOM     12  C   LIG    1       -2.633  -2.524  -1.168  0.00  0.00    -0.000 C 
BRANCH  12  13
ATOM     13  C   LIG    1       -1.319  -1.741  -1.176  0.00  0.00    +0.020 C 
BRANCH  13  14
ATOM     14  C   LIG    1       -1.293  -0.775   0.010  0.00  0.00    +0.050 C 
BRANCH  14  16
ATOM     15  C   LIG    1       -0.016   1.306   0.009  0.00  0.00    +0.020 C 
ATOM     16  C   LIG    1        0.002  -0.004   0.002  0.00  0.00    -0.060 C 
ENDBRANCH  14  16
ENDBRANCH  13  14
ENDBRANCH  12  13
ENDBRANCH  11  12
ENDBRANCH   1  11
TORSDOF 8
ENDMDL
MODEL      678
REMARK  Name = ZINC000308654867
REMARK                            x       y       z     vdW  Elec       q    Type
REMARK                         _______ _______ _______ _____ _____    ______ ____
ROOT
ATOM      1  C   LIG    1       -3.994  -4.239  -2.242  0.00  0.00    +0.160 C 
ATOM      2  C   LIG    1       -3.829  -5.389  -3.238  0.00  0.00    +0.090 C 
ENDROOT
BRANCH   1   3
ATOM      3  N   LIG    1       -5.152  -3.421  -2.626  0.00  0.00    -0.500 N 
ATOM      4  H   LIG    1       -5.050  -3.121  -3.583  0.00  0.00    +0.430 HD
ATOM      5  H   LIG    1       -5.207  -2.613  -2.024  0.00  0.00    +0.430 HD
BRANCH   3   6
ATOM      6  C   LIG    1       -6.380  -4.217  -2.490  0.00  0.00    +0.200 C 
ATOM      7  C   LIG    1       -7.566  -3.422  -3.041  0.00  0.00    +0.090 C 
BRANCH   6   8
ATOM      8  C   LIG    1       -6.621  -4.536  -1.014  0.00  0.00    -0.090 C 
ATOM      9  C   LIG    1       -7.882  -3.964  -0.364  0.00  0.00    +0.050 C 
ATOM     10  C   LIG    1       -7.792  -5.460  -0.673  0.00  0.00    +0.070 C 
ENDBRANCH   6   8
ENDBRANCH   3   6
ENDBRANCH   1   3
BRANCH   1  11
ATOM     11  C   LIG    1       -2.733  -3.373  -2.250  0.00  0.00    +0.050 C 
BRANCH  11  12
ATOM     12  C   LIG    1       -2.845  -2.298  -1.168  0.00  0.00    +0.010 C 
BRANCH  12  13
ATOM     13  C   LIG    1       -1.584  -1.432  -1.176  0.00  0.00    +0.020 C 
BRANCH  13  14
ATOM     14  C   LIG    1       -1.696  -0.357  -0.093  0.00  0.00    +0.050 C 
BRANCH  14  16
ATOM     15  C   LIG    1       -0.553   1.796  -0.227  0.00  0.00    +0.020 C 
ATOM     16  C   LIG    1       -0.454   0.496  -0.102  0.00  0.00    -0.060 C 
ENDBRANCH  14  16
ENDBRANCH  13  14
ENDBRANCH  12  13
ENDBRANCH  11  12
ENDBRANCH   1  11
TORSDOF 8
ENDMDL
MODEL      679
REMARK  Name = ZINC000070744025
REMARK                            x       y       z     vdW  Elec       q    Type
REMARK                         _______ _______ _______ _____ _____    ______ ____
ROOT
ATOM      1  C   LIG    1       -4.000  -5.238  -3.533  0.00  0.00    +0.170 C 
ATOM      2  C   LIG    1       -5.363  -5.930  -3.597  0.00  0.00    +0.090 C 
ENDROOT
BRANCH   1   3
ATOM      3  N   LIG    1       -2.945  -6.247  -3.366  0.00  0.00    -0.510 N 
ATOM      4  H   LIG    1       -3.147  -6.814  -2.557  0.00  0.00    +0.430 HD
ATOM      5  H   LIG    1       -2.056  -5.787  -3.242  0.00  0.00    +0.430 HD
BRANCH   3   6
ATOM      6  C   LIG    1       -2.892  -7.100  -4.561  0.00  0.00    +0.250 C 
BRANCH   6   7
ATOM      7  C   LIG    1       -1.793  -8.151  -4.387  0.00  0.00    +0.030 C 
ATOM      8  C   LIG    1       -1.737  -9.040  -5.631  0.00  0.00    +0.060 C 
ENDBRANCH   6   7
ENDBRANCH   3   6
ENDBRANCH   1   3
BRANCH   1   9
ATOM      9  C   LIG    1       -3.974  -4.272  -2.346  0.00  0.00    +0.050 C 
BRANCH   9  10
ATOM     10  C   LIG    1       -2.659  -3.489  -2.355  0.00  0.00    +0.010 C 
BRANCH  10  11
ATOM     11  C   LIG    1       -2.633  -2.524  -1.168  0.00  0.00    +0.020 C 
BRANCH  11  12
ATOM     12  C   LIG    1       -1.319  -1.741  -1.176  0.00  0.00    +0.010 C 
BRANCH  12  13
ATOM     13  C   LIG    1       -1.293  -0.775   0.010  0.00  0.00    +0.040 C 
BRANCH  13  15
ATOM     14  C   LIG    1       -0.016   1.306   0.009  0.00  0.00    +0.020 C 
ATOM     15  C   LIG    1        0.002  -0.004   0.002  0.00  0.00    -0.060 C 
ENDBRANCH  13  15
ENDBRANCH  12  13
ENDBRANCH  11  12
ENDBRANCH  10  11
ENDBRANCH   9  10
ENDBRANCH   1   9
TORSDOF 9
ENDMDL
MODEL      680
REMARK  Name = ZINC000070744026
REMARK                            x       y       z     vdW  Elec       q    Type
REMARK                         _______ _______ _______ _____ _____    ______ ____
ROOT
ATOM      1  C   LIG    1       -4.000  -5.238  -3.533  0.00  0.00    +0.170 C 
ATOM      2  C   LIG    1       -5.256  -6.108  -3.455  0.00  0.00    +0.090 C 
ENDROOT
BRANCH   1   3
ATOM      3  N   LIG    1       -4.011  -4.472  -4.787  0.00  0.00    -0.510 N 
ATOM      4  H   LIG    1       -3.226  -3.838  -4.801  0.00  0.00    +0.430 HD
ATOM      5  H   LIG    1       -4.870  -3.946  -4.852  0.00  0.00    +0.430 HD
BRANCH   3   6
ATOM      6  C   LIG    1       -3.916  -5.396  -5.925  0.00  0.00    +0.250 C 
BRANCH   6   7
ATOM      7  C   LIG    1       -3.928  -4.599  -7.231  0.00  0.00    +0.030 C 
ATOM      8  C   LIG    1       -3.828  -5.561  -8.417  0.00  0.00    +0.060 C 
ENDBRANCH   6   7
ENDBRANCH   3   6
ENDBRANCH   1   3
BRANCH   1   9
ATOM      9  C   LIG    1       -3.974  -4.272  -2.346  0.00  0.00    +0.050 C 
BRANCH   9  10
ATOM     10  C   LIG    1       -2.659  -3.489  -2.355  0.00  0.00    +0.010 C 
BRANCH  10  11
ATOM     11  C   LIG    1       -2.633  -2.524  -1.168  0.00  0.00    +0.020 C 
BRANCH  11  12
ATOM     12  C   LIG    1       -1.319  -1.741  -1.176  0.00  0.00    +0.010 C 
BRANCH  12  13
ATOM     13  C   LIG    1       -1.293  -0.775   0.010  0.00  0.00    +0.040 C 
BRANCH  13  15
ATOM     14  C   LIG    1       -0.016   1.306   0.009  0.00  0.00    +0.010 C 
ATOM     15  C   LIG    1        0.002  -0.004   0.002  0.00  0.00    -0.060 C 
ENDBRANCH  13  15
ENDBRANCH  12  13
ENDBRANCH  11  12
ENDBRANCH  10  11
ENDBRANCH   9  10
ENDBRANCH   1   9
TORSDOF 9
ENDMDL
MODEL      681
REMARK  Name = ZINC000748806300
REMARK                            x       y       z     vdW  Elec       q    Type
REMARK                         _______ _______ _______ _____ _____    ______ ____
ROOT
ATOM      1  C   LIG    1        3.009  -1.736   1.162  0.00  0.00    +0.160 C 
ATOM      2  C   LIG    1        3.963  -0.614   0.749  0.00  0.00    +0.030 C 
ATOM      3  C   LIG    1        5.408  -1.071   0.957  0.00  0.00    +0.030 C 
ATOM      4  C   LIG    1        5.804  -2.037  -0.161  0.00  0.00    +0.010 C 
ATOM      5  C   LIG    1        5.165  -3.404   0.097  0.00  0.00    +0.000 C 
ATOM      6  C   LIG    1        5.321  -3.770   1.574  0.00  0.00    +0.010 C 
ATOM      7  C   LIG    1        3.946  -3.785   2.244  0.00  0.00    +0.030 C 
ATOM      8  C   LIG    1        3.481  -2.347   2.483  0.00  0.00    +0.040 C 
ENDROOT
BRANCH   1   9
ATOM      9  N   LIG    1        1.655  -1.192   1.331  0.00  0.00    -0.380 N 
ATOM     10  C   LIG    1        0.739  -2.269   1.727  0.00  0.00    +0.310 C 
ATOM     11  H   LIG    1        1.666  -0.479   2.045  0.00  0.00    +0.420 HD
BRANCH   9  12
ATOM     12  C   LIG    1        1.202  -0.605   0.062  0.00  0.00    +0.300 C 
BRANCH  12  14
ATOM     13  C   LIG    1       -1.237  -0.553  -0.030  0.00  0.00    +0.110 C 
ATOM     14  C   LIG    1       -0.127   0.075   0.269  0.00  0.00    -0.190 C 
ATOM     15  C   LIG    1       -0.178   1.476   0.820  0.00  0.00    +0.100 C 
ENDBRANCH  12  14
ENDBRANCH   9  12
ENDBRANCH   1   9
TORSDOF 3
ENDMDL
MODEL      682
REMARK  Name = ZINC000100027213
REMARK                            x       y       z     vdW  Elec       q    Type
REMARK                         _______ _______ _______ _____ _____    ______ ____
ROOT
ATOM      1  N   LIG    1        2.212  -6.013  -3.799  0.00  0.00    -0.510 N 
ATOM      2  H   LIG    1        1.265  -6.362  -3.792  0.00  0.00    +0.430 HD
ATOM      3  H   LIG    1        2.700  -6.347  -2.982  0.00  0.00    +0.430 HD
ENDROOT
BRANCH   1   4
ATOM      4  C   LIG    1        2.192  -4.544  -3.791  0.00  0.00    +0.250 C 
BRANCH   4   5
ATOM      5  C   LIG    1        1.476  -4.051  -2.532  0.00  0.00    +0.030 C 
BRANCH   5   6
ATOM      6  C   LIG    1        1.455  -2.521  -2.524  0.00  0.00    +0.020 C 
BRANCH   6   7
ATOM      7  C   LIG    1        0.739  -2.027  -1.265  0.00  0.00    +0.020 C 
BRANCH   7   8
ATOM      8  C   LIG    1        0.718  -0.497  -1.257  0.00  0.00    +0.000 C 
BRANCH   8  10
ATOM      9  C   LIG    1       -0.019   1.526   0.010  0.00  0.00    +0.000 C 
ATOM     10  C   LIG    1        0.002  -0.004   0.002  0.00  0.00    -0.010 C 
ENDBRANCH   8  10
ENDBRANCH   7   8
ENDBRANCH   6   7
ENDBRANCH   5   6
ENDBRANCH   4   5
ENDBRANCH   1   4
BRANCH   1  11
ATOM     11  C   LIG    1        2.900  -6.487  -5.008  0.00  0.00    +0.260 C 
BRANCH  11  12
ATOM     12  C   LIG    1        2.920  -8.016  -5.016  0.00  0.00    -0.090 C 
ATOM     13  C   LIG    1        3.660  -8.523  -3.777  0.00  0.00    +0.040 C 
ATOM     14  C   LIG    1        3.636  -8.510  -6.275  0.00  0.00    +0.070 C 
ATOM     15  C   LIG    1        1.485  -8.546  -5.005  0.00  0.00    +0.040 C 
ENDBRANCH  11  12
ENDBRANCH   1  11
TORSDOF 8
ENDMDL
MODEL      683
REMARK  Name = ZINC000308711785
REMARK                            x       y       z     vdW  Elec       q    Type
REMARK                         _______ _______ _______ _____ _____    ______ ____
ROOT
ATOM      1  N   LIG    1        4.039  -4.159   2.305  0.00  0.00    -0.510 N 
ATOM      2  H   LIG    1        4.796  -3.496   2.384  0.00  0.00    +0.430 HD
ATOM      3  H   LIG    1        4.128  -4.669   1.439  0.00  0.00    +0.430 HD
ENDROOT
BRANCH   1   4
ATOM      4  C   LIG    1        2.757  -3.441   2.321  0.00  0.00    +0.250 C 
BRANCH   4   5
ATOM      5  C   LIG    1        2.705  -2.464   1.145  0.00  0.00    +0.030 C 
BRANCH   5   6
ATOM      6  C   LIG    1        1.370  -1.717   1.161  0.00  0.00    +0.050 C 
BRANCH   6   7
ATOM      7  C   LIG    1        1.317  -0.740  -0.015  0.00  0.00    +0.060 C 
BRANCH   7   9
ATOM      8  C   LIG    1       -0.016   1.306   0.009  0.00  0.00    +0.020 C 
ATOM      9  C   LIG    1        0.002  -0.004   0.002  0.00  0.00    -0.060 C 
ENDBRANCH   7   9
ENDBRANCH   6   7
ENDBRANCH   5   6
ENDBRANCH   4   5
ENDBRANCH   1   4
BRANCH   1  10
ATOM     10  C   LIG    1        4.090  -5.097   3.434  0.00  0.00    +0.260 C 
BRANCH  10  11
ATOM     11  C   LIG    1        5.425  -5.844   3.417  0.00  0.00    -0.090 C 
ATOM     12  C   LIG    1        6.586  -4.852   3.608  0.00  0.00    +0.010 C 
ATOM     13  C   LIG    1        7.318  -5.274   4.899  0.00  0.00    +0.020 C 
ATOM     14  C   LIG    1        6.969  -6.775   5.060  0.00  0.00    +0.020 C 
ATOM     15  C   LIG    1        5.588  -6.595   2.094  0.00  0.00    +0.050 C 
ATOM     16  C   LIG    1        5.492  -6.834   4.598  0.00  0.00    +0.050 C 
ENDBRANCH  10  11
ENDBRANCH   1  10
TORSDOF 7
ENDMDL
MODEL      684
REMARK  Name = ZINC000310175738
REMARK                            x       y       z     vdW  Elec       q    Type
REMARK                         _______ _______ _______ _____ _____    ______ ____
ROOT
ATOM      1  N   LIG    1       -2.658  -3.451  -2.307  0.00  0.00    -0.510 N 
ATOM      2  H   LIG    1       -1.884  -4.093  -2.235  0.00  0.00    +0.420 HD
ATOM      3  H   LIG    1       -2.583  -2.929  -3.167  0.00  0.00    +0.420 HD
ENDROOT
BRANCH   1   4
ATOM      4  C   LIG    1       -3.920  -4.202  -2.299  0.00  0.00    +0.170 C 
ATOM      5  C   LIG    1       -3.978  -5.090  -1.054  0.00  0.00    +0.090 C 
BRANCH   4   6
ATOM      6  C   LIG    1       -4.001  -5.076  -3.553  0.00  0.00    +0.050 C 
BRANCH   6   7
ATOM      7  C   LIG    1       -4.070  -4.184  -4.793  0.00  0.00    -0.000 C 
BRANCH   7   8
ATOM      8  C   LIG    1       -4.151  -5.058  -6.046  0.00  0.00    +0.010 C 
ATOM      9  C   LIG    1       -4.219  -4.165  -7.287  0.00  0.00    +0.010 C 
ENDBRANCH   7   8
ENDBRANCH   6   7
ENDBRANCH   4   6
ENDBRANCH   1   4
BRANCH   1  10
ATOM     10  C   LIG    1       -2.633  -2.524  -1.168  0.00  0.00    +0.260 C 
BRANCH  10  11
ATOM     11  C   LIG    1       -1.319  -1.741  -1.176  0.00  0.00    -0.080 C 
ATOM     12  C   LIG    1       -0.144  -2.715  -1.067  0.00  0.00    +0.040 C 
ATOM     13  C   LIG    1       -1.205  -0.949  -2.481  0.00  0.00    +0.050 C 
BRANCH  11  14
ATOM     14  C   LIG    1       -1.293  -0.775   0.010  0.00  0.00    +0.080 C 
BRANCH  14  16
ATOM     15  C   LIG    1       -0.016   1.306   0.009  0.00  0.00    +0.030 C 
ATOM     16  C   LIG    1        0.002  -0.004   0.002  0.00  0.00    -0.060 C 
ENDBRANCH  14  16
ENDBRANCH  11  14
ENDBRANCH  10  11
ENDBRANCH   1  10
TORSDOF 8
ENDMDL
MODEL      685
REMARK  Name = ZINC000310550747
REMARK                            x       y       z     vdW  Elec       q    Type
REMARK                         _______ _______ _______ _____ _____    ______ ____
ROOT
ATOM      1  N   LIG    1       -2.658  -3.451  -2.307  0.00  0.00    -0.510 N 
ATOM      2  H   LIG    1       -1.884  -4.093  -2.235  0.00  0.00    +0.430 HD
ATOM      3  H   LIG    1       -2.583  -2.929  -3.167  0.00  0.00    +0.430 HD
ENDROOT
BRANCH   1   4
ATOM      4  C   LIG    1       -2.633  -2.524  -1.168  0.00  0.00    +0.260 C 
BRANCH   4   5
ATOM      5  C   LIG    1       -1.319  -1.741  -1.176  0.00  0.00    -0.080 C 
ATOM      6  C   LIG    1       -0.144  -2.715  -1.067  0.00  0.00    +0.040 C 
ATOM      7  C   LIG    1       -1.205  -0.949  -2.481  0.00  0.00    +0.050 C 
BRANCH   5   8
ATOM      8  C   LIG    1       -1.293  -0.775   0.010  0.00  0.00    +0.080 C 
BRANCH   8  10
ATOM      9  C   LIG    1       -0.016   1.306   0.009  0.00  0.00    +0.030 C 
ATOM     10  C   LIG    1        0.002  -0.004   0.002  0.00  0.00    -0.060 C 
ENDBRANCH   8  10
ENDBRANCH   5   8
ENDBRANCH   4   5
ENDBRANCH   1   4
BRANCH   1  11
ATOM     11  C   LIG    1       -3.920  -4.202  -2.299  0.00  0.00    +0.250 C 
BRANCH  11  12
ATOM     12  C   LIG    1       -3.946  -5.168  -3.486  0.00  0.00    +0.030 C 
BRANCH  12  13
ATOM     13  C   LIG    1       -5.261  -5.951  -3.478  0.00  0.00    +0.030 C 
BRANCH  13  14
ATOM     14  C   LIG    1       -5.287  -6.916  -4.664  0.00  0.00    -0.030 C 
ATOM     15  C   LIG    1       -5.299  -6.119  -5.970  0.00  0.00    +0.020 C 
ATOM     16  C   LIG    1       -6.543  -7.786  -4.586  0.00  0.00    +0.030 C 
ENDBRANCH  13  14
ENDBRANCH  12  13
ENDBRANCH  11  12
ENDBRANCH   1  11
TORSDOF 8
ENDMDL
MODEL      686
REMARK  Name = ZINC000310361783
REMARK                            x       y       z     vdW  Elec       q    Type
REMARK                         _______ _______ _______ _____ _____    ______ ____
ROOT
ATOM      1  N   LIG    1        2.755  -3.402   2.274  0.00  0.00    -0.510 N 
ATOM      2  H   LIG    1        1.998  -4.065   2.195  0.00  0.00    +0.430 HD
ATOM      3  H   LIG    1        2.666  -2.892   3.140  0.00  0.00    +0.420 HD
ENDROOT
BRANCH   1   4
ATOM      4  C   LIG    1        4.037  -4.120   2.258  0.00  0.00    +0.170 C 
ATOM      5  C   LIG    1        5.178  -3.130   2.503  0.00  0.00    +0.080 C 
BRANCH   4   6
ATOM      6  C   LIG    1        4.040  -5.184   3.357  0.00  0.00    -0.020 C 
ATOM      7  C   LIG    1        3.849  -4.511   4.718  0.00  0.00    +0.040 C 
BRANCH   6   8
ATOM      8  C   LIG    1        5.375  -5.931   3.340  0.00  0.00    +0.030 C 
ATOM      9  C   LIG    1        5.332  -7.075   4.355  0.00  0.00    +0.030 C 
ENDBRANCH   6   8
ENDBRANCH   4   6
ENDBRANCH   1   4
BRANCH   1  10
ATOM     10  C   LIG    1        2.705  -2.464   1.145  0.00  0.00    +0.250 C 
BRANCH  10  11
ATOM     11  C   LIG    1        1.370  -1.717   1.161  0.00  0.00    -0.080 C 
ATOM     12  C   LIG    1        0.222  -2.722   1.041  0.00  0.00    +0.040 C 
ATOM     13  C   LIG    1        1.235  -0.943   2.474  0.00  0.00    +0.050 C 
BRANCH  11  14
ATOM     14  C   LIG    1        1.317  -0.740  -0.015  0.00  0.00    +0.080 C 
BRANCH  14  16
ATOM     15  C   LIG    1       -0.016   1.306   0.009  0.00  0.00    +0.030 C 
ATOM     16  C   LIG    1        0.002  -0.004   0.002  0.00  0.00    -0.060 C 
ENDBRANCH  14  16
ENDBRANCH  11  14
ENDBRANCH  10  11
ENDBRANCH   1  10
TORSDOF 7
ENDMDL
MODEL      687
REMARK  Name = ZINC000310518697
REMARK                            x       y       z     vdW  Elec       q    Type
REMARK                         _______ _______ _______ _____ _____    ______ ____
ROOT
ATOM      1  N   LIG    1        2.755  -3.402   2.274  0.00  0.00    -0.510 N 
ATOM      2  H   LIG    1        1.998  -4.065   2.195  0.00  0.00    +0.430 HD
ATOM      3  H   LIG    1        2.666  -2.892   3.140  0.00  0.00    +0.430 HD
ENDROOT
BRANCH   1   4
ATOM      4  C   LIG    1        2.705  -2.464   1.145  0.00  0.00    +0.260 C 
BRANCH   4   5
ATOM      5  C   LIG    1        1.370  -1.717   1.161  0.00  0.00    -0.080 C 
ATOM      6  C   LIG    1        0.222  -2.722   1.041  0.00  0.00    +0.040 C 
ATOM      7  C   LIG    1        1.235  -0.943   2.474  0.00  0.00    +0.050 C 
BRANCH   5   8
ATOM      8  C   LIG    1        1.317  -0.740  -0.015  0.00  0.00    +0.080 C 
BRANCH   8  10
ATOM      9  C   LIG    1       -0.016   1.306   0.009  0.00  0.00    +0.030 C 
ATOM     10  C   LIG    1        0.002  -0.004   0.002  0.00  0.00    -0.060 C 
ENDBRANCH   8  10
ENDBRANCH   5   8
ENDBRANCH   4   5
ENDBRANCH   1   4
BRANCH   1  11
ATOM     11  C   LIG    1        4.037  -4.120   2.258  0.00  0.00    +0.240 C 
BRANCH  11  12
ATOM     12  C   LIG    1        4.090  -5.097   3.434  0.00  0.00    +0.040 C 
BRANCH  12  13
ATOM     13  C   LIG    1        5.425  -5.844   3.417  0.00  0.00    -0.060 C 
ATOM     14  C   LIG    1        5.560  -6.618   2.104  0.00  0.00    +0.020 C 
ATOM     15  C   LIG    1        5.477  -6.821   4.593  0.00  0.00    +0.040 C 
ATOM     16  C   LIG    1        6.573  -4.839   3.537  0.00  0.00    +0.020 C 
ENDBRANCH  12  13
ENDBRANCH  11  12
ENDBRANCH   1  11
TORSDOF 7
ENDMDL
MODEL      688
REMARK  Name = ZINC000310542989
REMARK                            x       y       z     vdW  Elec       q    Type
REMARK                         _______ _______ _______ _____ _____    ______ ____
ROOT
ATOM      1  N   LIG    1        2.728  -3.408   2.305  0.00  0.00    -0.510 N 
ATOM      2  H   LIG    1        2.034  -4.113   2.108  0.00  0.00    +0.420 HD
ATOM      3  H   LIG    1        2.534  -2.984   3.200  0.00  0.00    +0.430 HD
ENDROOT
BRANCH   1   4
ATOM      4  C   LIG    1        2.691  -2.378   1.257  0.00  0.00    +0.260 C 
BRANCH   4   5
ATOM      5  C   LIG    1        1.304  -1.733   1.226  0.00  0.00    -0.080 C 
ATOM      6  C   LIG    1        0.251  -2.802   0.928  0.00  0.00    +0.040 C 
ATOM      7  C   LIG    1        1.010  -1.091   2.583  0.00  0.00    +0.050 C 
BRANCH   5   8
ATOM      8  C   LIG    1        1.265  -0.661   0.135  0.00  0.00    +0.080 C 
BRANCH   8  10
ATOM      9  C   LIG    1       -0.222   1.274   0.219  0.00  0.00    +0.030 C 
ATOM     10  C   LIG    1       -0.101  -0.025   0.104  0.00  0.00    -0.060 C 
ENDBRANCH   8  10
ENDBRANCH   5   8
ENDBRANCH   4   5
ENDBRANCH   1   4
BRANCH   1  11
ATOM     11  C   LIG    1        4.060  -4.027   2.335  0.00  0.00    +0.260 C 
BRANCH  11  12
ATOM     12  C   LIG    1        4.141  -5.006   3.508  0.00  0.00    -0.020 C 
BRANCH  12  13
ATOM     13  C   LIG    1        5.565  -5.556   3.616  0.00  0.00    +0.050 C 
ATOM     14  C   LIG    1        6.524  -4.421   3.980  0.00  0.00    +0.020 C 
ENDBRANCH  12  13
BRANCH  12  15
ATOM     15  C   LIG    1        3.164  -6.161   3.277  0.00  0.00    +0.000 C 
ATOM     16  C   LIG    1        3.154  -7.073   4.506  0.00  0.00    +0.040 C 
ENDBRANCH  12  15
ENDBRANCH  11  12
ENDBRANCH   1  11
TORSDOF 8
ENDMDL
MODEL      689
REMARK  Name = ZINC000308716962
REMARK                            x       y       z     vdW  Elec       q    Type
REMARK                         _______ _______ _______ _____ _____    ______ ____
ROOT
ATOM      1  N   LIG    1       -2.528  -3.394  -0.029  0.00  0.00    -0.510 N 
ATOM      2  H   LIG    1       -2.482  -2.817   0.798  0.00  0.00    +0.430 HD
ATOM      3  H   LIG    1       -1.682  -3.937  -0.108  0.00  0.00    +0.430 HD
ENDROOT
BRANCH   1   4
ATOM      4  C   LIG    1       -2.673  -2.538  -1.214  0.00  0.00    +0.170 C 
BRANCH   4   5
ATOM      5  C   LIG    1       -2.586  -3.398  -2.477  0.00  0.00    +0.030 C 
ATOM      6  C   LIG    1       -2.815  -2.519  -3.709  0.00  0.00    +0.060 C 
ENDBRANCH   4   5
BRANCH   4   7
ATOM      7  C   LIG    1       -1.555  -1.494  -1.230  0.00  0.00    +0.070 C 
BRANCH   7   8
ATOM      8  C   LIG    1       -1.716  -0.556  -0.032  0.00  0.00    +0.040 C 
BRANCH   8  10
ATOM      9  C   LIG    1       -0.910   1.748  -0.023  0.00  0.00    +0.050 C 
ATOM     10  C   LIG    1       -0.615   0.472  -0.047  0.00  0.00    -0.070 C 
ENDBRANCH   8  10
ENDBRANCH   7   8
ENDBRANCH   4   7
ENDBRANCH   1   4
BRANCH   1  11
ATOM     11  C   LIG    1       -3.683  -4.297   0.068  0.00  0.00    +0.250 C 
BRANCH  11  12
ATOM     12  C   LIG    1       -3.489  -5.247   1.251  0.00  0.00    +0.040 C 
BRANCH  12  13
ATOM     13  C   LIG    1       -4.692  -6.188   1.351  0.00  0.00    -0.010 C 
ATOM     14  C   LIG    1       -4.553  -7.459   0.497  0.00  0.00    +0.010 C 
ATOM     15  C   LIG    1       -5.189  -8.222   1.671  0.00  0.00    +0.010 C 
ATOM     16  C   LIG    1       -4.655  -7.106   2.584  0.00  0.00    +0.010 C 
ENDBRANCH  12  13
ENDBRANCH  11  12
ENDBRANCH   1  11
TORSDOF 8
ENDMDL
MODEL      690
REMARK  Name = ZINC000310364723
REMARK                            x       y       z     vdW  Elec       q    Type
REMARK                         _______ _______ _______ _____ _____    ______ ____
ROOT
ATOM      1  N   LIG    1       -2.650  -3.482  -2.473  0.00  0.00    -0.510 N 
ATOM      2  H   LIG    1       -1.835  -4.067  -2.369  0.00  0.00    +0.420 HD
ATOM      3  H   LIG    1       -2.676  -3.106  -3.409  0.00  0.00    +0.420 HD
ENDROOT
BRANCH   1   4
ATOM      4  C   LIG    1       -2.588  -2.379  -1.504  0.00  0.00    +0.250 C 
BRANCH   4   5
ATOM      5  C   LIG    1       -1.266  -1.626  -1.672  0.00  0.00    -0.080 C 
ATOM      6  C   LIG    1       -0.099  -2.584  -1.430  0.00  0.00    +0.040 C 
ATOM      7  C   LIG    1       -1.178  -1.063  -3.092  0.00  0.00    +0.050 C 
BRANCH   5   8
ATOM      8  C   LIG    1       -1.202  -0.478  -0.663  0.00  0.00    +0.080 C 
BRANCH   8  10
ATOM      9  C   LIG    1        0.094   1.557  -1.039  0.00  0.00    +0.030 C 
ATOM     10  C   LIG    1        0.100   0.264  -0.829  0.00  0.00    -0.060 C 
ENDBRANCH   8  10
ENDBRANCH   5   8
ENDBRANCH   4   5
ENDBRANCH   1   4
BRANCH   1  11
ATOM     11  C   LIG    1       -3.860  -4.279  -2.231  0.00  0.00    +0.170 C 
BRANCH  11  12
ATOM     12  C   LIG    1       -5.098  -3.428  -2.523  0.00  0.00    -0.020 C 
ATOM     13  C   LIG    1       -6.358  -4.236  -2.205  0.00  0.00    +0.070 C 
ATOM     14  C   LIG    1       -5.106  -3.030  -4.000  0.00  0.00    +0.040 C 
ENDBRANCH  11  12
BRANCH  11  15
ATOM     15  C   LIG    1       -3.855  -5.504  -3.147  0.00  0.00    +0.060 C 
ATOM     16  C   LIG    1       -2.686  -6.417  -2.771  0.00  0.00    +0.030 C 
ENDBRANCH  11  15
ENDBRANCH   1  11
TORSDOF 7
ENDMDL
MODEL      691
REMARK  Name = ZINC000310361788
REMARK                            x       y       z     vdW  Elec       q    Type
REMARK                         _______ _______ _______ _____ _____    ______ ____
ROOT
ATOM      1  N   LIG    1        2.755  -3.402   2.274  0.00  0.00    -0.510 N 
ATOM      2  H   LIG    1        1.998  -4.065   2.195  0.00  0.00    +0.420 HD
ATOM      3  H   LIG    1        2.666  -2.892   3.140  0.00  0.00    +0.420 HD
ENDROOT
BRANCH   1   4
ATOM      4  C   LIG    1        4.037  -4.120   2.258  0.00  0.00    +0.170 C 
ATOM      5  C   LIG    1        4.118  -4.991   1.003  0.00  0.00    +0.080 C 
BRANCH   4   6
ATOM      6  C   LIG    1        4.142  -5.005   3.501  0.00  0.00    -0.010 C 
ATOM      7  C   LIG    1        4.061  -4.133   4.756  0.00  0.00    +0.040 C 
BRANCH   6   8
ATOM      8  C   LIG    1        5.477  -5.752   3.485  0.00  0.00    +0.030 C 
ATOM      9  C   LIG    1        5.530  -6.729   4.660  0.00  0.00    +0.030 C 
ENDBRANCH   6   8
ENDBRANCH   4   6
ENDBRANCH   1   4
BRANCH   1  10
ATOM     10  C   LIG    1        2.705  -2.464   1.145  0.00  0.00    +0.260 C 
BRANCH  10  11
ATOM     11  C   LIG    1        1.370  -1.717   1.161  0.00  0.00    -0.080 C 
ATOM     12  C   LIG    1        0.222  -2.722   1.041  0.00  0.00    +0.040 C 
ATOM     13  C   LIG    1        1.235  -0.943   2.474  0.00  0.00    +0.050 C 
BRANCH  11  14
ATOM     14  C   LIG    1        1.317  -0.740  -0.015  0.00  0.00    +0.080 C 
BRANCH  14  16
ATOM     15  C   LIG    1       -0.016   1.306   0.009  0.00  0.00    +0.030 C 
ATOM     16  C   LIG    1        0.002  -0.004   0.002  0.00  0.00    -0.060 C 
ENDBRANCH  14  16
ENDBRANCH  11  14
ENDBRANCH  10  11
ENDBRANCH   1  10
TORSDOF 7
ENDMDL
MODEL      692
REMARK  Name = ZINC000310175739
REMARK                            x       y       z     vdW  Elec       q    Type
REMARK                         _______ _______ _______ _____ _____    ______ ____
ROOT
ATOM      1  N   LIG    1       -2.658  -3.451  -2.307  0.00  0.00    -0.510 N 
ATOM      2  H   LIG    1       -1.884  -4.093  -2.235  0.00  0.00    +0.420 HD
ATOM      3  H   LIG    1       -2.583  -2.929  -3.167  0.00  0.00    +0.420 HD
ENDROOT
BRANCH   1   4
ATOM      4  C   LIG    1       -3.920  -4.202  -2.299  0.00  0.00    +0.170 C 
ATOM      5  C   LIG    1       -5.088  -3.242  -2.534  0.00  0.00    +0.090 C 
BRANCH   4   6
ATOM      6  C   LIG    1       -3.894  -5.254  -3.410  0.00  0.00    +0.050 C 
BRANCH   6   7
ATOM      7  C   LIG    1       -2.806  -6.287  -3.110  0.00  0.00    -0.000 C 
BRANCH   7   8
ATOM      8  C   LIG    1       -2.781  -7.338  -4.221  0.00  0.00    +0.010 C 
ATOM      9  C   LIG    1       -1.692  -8.371  -3.921  0.00  0.00    +0.010 C 
ENDBRANCH   7   8
ENDBRANCH   6   7
ENDBRANCH   4   6
ENDBRANCH   1   4
BRANCH   1  10
ATOM     10  C   LIG    1       -2.633  -2.524  -1.168  0.00  0.00    +0.260 C 
BRANCH  10  11
ATOM     11  C   LIG    1       -1.319  -1.741  -1.176  0.00  0.00    -0.080 C 
ATOM     12  C   LIG    1       -0.144  -2.715  -1.067  0.00  0.00    +0.040 C 
ATOM     13  C   LIG    1       -1.205  -0.949  -2.481  0.00  0.00    +0.050 C 
BRANCH  11  14
ATOM     14  C   LIG    1       -1.293  -0.775   0.010  0.00  0.00    +0.080 C 
BRANCH  14  16
ATOM     15  C   LIG    1       -0.016   1.306   0.009  0.00  0.00    +0.030 C 
ATOM     16  C   LIG    1        0.002  -0.004   0.002  0.00  0.00    -0.060 C 
ENDBRANCH  14  16
ENDBRANCH  11  14
ENDBRANCH  10  11
ENDBRANCH   1  10
TORSDOF 8
ENDMDL
MODEL      693
REMARK  Name = ZINC000310361787
REMARK                            x       y       z     vdW  Elec       q    Type
REMARK                         _______ _______ _______ _____ _____    ______ ____
ROOT
ATOM      1  N   LIG    1        2.755  -3.402   2.274  0.00  0.00    -0.510 N 
ATOM      2  H   LIG    1        1.998  -4.065   2.195  0.00  0.00    +0.420 HD
ATOM      3  H   LIG    1        2.666  -2.892   3.140  0.00  0.00    +0.420 HD
ENDROOT
BRANCH   1   4
ATOM      4  C   LIG    1        4.037  -4.120   2.258  0.00  0.00    +0.170 C 
ATOM      5  C   LIG    1        5.178  -3.130   2.503  0.00  0.00    +0.080 C 
BRANCH   4   6
ATOM      6  C   LIG    1        4.040  -5.184   3.357  0.00  0.00    -0.010 C 
ATOM      7  C   LIG    1        2.899  -6.173   3.112  0.00  0.00    +0.040 C 
BRANCH   6   8
ATOM      8  C   LIG    1        5.375  -5.931   3.340  0.00  0.00    +0.030 C 
ATOM      9  C   LIG    1        5.428  -6.908   4.516  0.00  0.00    +0.030 C 
ENDBRANCH   6   8
ENDBRANCH   4   6
ENDBRANCH   1   4
BRANCH   1  10
ATOM     10  C   LIG    1        2.705  -2.464   1.145  0.00  0.00    +0.260 C 
BRANCH  10  11
ATOM     11  C   LIG    1        1.370  -1.717   1.161  0.00  0.00    -0.080 C 
ATOM     12  C   LIG    1        0.222  -2.722   1.041  0.00  0.00    +0.040 C 
ATOM     13  C   LIG    1        1.235  -0.943   2.474  0.00  0.00    +0.050 C 
BRANCH  11  14
ATOM     14  C   LIG    1        1.317  -0.740  -0.015  0.00  0.00    +0.080 C 
BRANCH  14  16
ATOM     15  C   LIG    1       -0.016   1.306   0.009  0.00  0.00    +0.030 C 
ATOM     16  C   LIG    1        0.002  -0.004   0.002  0.00  0.00    -0.060 C 
ENDBRANCH  14  16
ENDBRANCH  11  14
ENDBRANCH  10  11
ENDBRANCH   1  10
TORSDOF 7
ENDMDL
MODEL      694
REMARK  Name = ZINC000310361785
REMARK                            x       y       z     vdW  Elec       q    Type
REMARK                         _______ _______ _______ _____ _____    ______ ____
ROOT
ATOM      1  N   LIG    1        2.755  -3.402   2.274  0.00  0.00    -0.510 N 
ATOM      2  H   LIG    1        1.998  -4.065   2.195  0.00  0.00    +0.420 HD
ATOM      3  H   LIG    1        2.666  -2.892   3.140  0.00  0.00    +0.430 HD
ENDROOT
BRANCH   1   4
ATOM      4  C   LIG    1        4.037  -4.120   2.258  0.00  0.00    +0.170 C 
ATOM      5  C   LIG    1        4.118  -4.991   1.003  0.00  0.00    +0.090 C 
BRANCH   4   6
ATOM      6  C   LIG    1        4.142  -5.005   3.501  0.00  0.00    -0.020 C 
ATOM      7  C   LIG    1        3.069  -6.093   3.444  0.00  0.00    +0.050 C 
BRANCH   6   8
ATOM      8  C   LIG    1        5.526  -5.655   3.549  0.00  0.00    +0.030 C 
ATOM      9  C   LIG    1        5.676  -6.440   4.854  0.00  0.00    +0.030 C 
ENDBRANCH   6   8
ENDBRANCH   4   6
ENDBRANCH   1   4
BRANCH   1  10
ATOM     10  C   LIG    1        2.705  -2.464   1.145  0.00  0.00    +0.260 C 
BRANCH  10  11
ATOM     11  C   LIG    1        1.370  -1.717   1.161  0.00  0.00    -0.080 C 
ATOM     12  C   LIG    1        0.222  -2.722   1.041  0.00  0.00    +0.040 C 
ATOM     13  C   LIG    1        1.235  -0.943   2.474  0.00  0.00    +0.050 C 
BRANCH  11  14
ATOM     14  C   LIG    1        1.317  -0.740  -0.015  0.00  0.00    +0.080 C 
BRANCH  14  16
ATOM     15  C   LIG    1       -0.016   1.306   0.009  0.00  0.00    +0.030 C 
ATOM     16  C   LIG    1        0.002  -0.004   0.002  0.00  0.00    -0.060 C 
ENDBRANCH  14  16
ENDBRANCH  11  14
ENDBRANCH  10  11
ENDBRANCH   1  10
TORSDOF 7
ENDMDL
MODEL      695
REMARK  Name = ZINC000310364724
REMARK                            x       y       z     vdW  Elec       q    Type
REMARK                         _______ _______ _______ _____ _____    ______ ____
ROOT
ATOM      1  N   LIG    1       -2.658  -3.451  -2.307  0.00  0.00    -0.510 N 
ATOM      2  H   LIG    1       -1.884  -4.093  -2.235  0.00  0.00    +0.420 HD
ATOM      3  H   LIG    1       -2.583  -2.929  -3.167  0.00  0.00    +0.420 HD
ENDROOT
BRANCH   1   4
ATOM      4  C   LIG    1       -2.633  -2.524  -1.168  0.00  0.00    +0.260 C 
BRANCH   4   5
ATOM      5  C   LIG    1       -1.319  -1.741  -1.176  0.00  0.00    -0.080 C 
ATOM      6  C   LIG    1       -0.144  -2.715  -1.067  0.00  0.00    +0.040 C 
ATOM      7  C   LIG    1       -1.205  -0.949  -2.481  0.00  0.00    +0.050 C 
BRANCH   5   8
ATOM      8  C   LIG    1       -1.293  -0.775   0.010  0.00  0.00    +0.080 C 
BRANCH   8  10
ATOM      9  C   LIG    1       -0.016   1.306   0.009  0.00  0.00    +0.030 C 
ATOM     10  C   LIG    1        0.002  -0.004   0.002  0.00  0.00    -0.060 C 
ENDBRANCH   8  10
ENDBRANCH   5   8
ENDBRANCH   4   5
ENDBRANCH   1   4
BRANCH   1  11
ATOM     11  C   LIG    1       -3.920  -4.202  -2.299  0.00  0.00    +0.170 C 
BRANCH  11  12
ATOM     12  C   LIG    1       -3.978  -5.090  -1.054  0.00  0.00    -0.020 C 
ATOM     13  C   LIG    1       -2.801  -6.068  -1.071  0.00  0.00    +0.050 C 
ATOM     14  C   LIG    1       -5.292  -5.873  -1.046  0.00  0.00    +0.070 C 
ENDBRANCH  11  12
BRANCH  11  15
ATOM     15  C   LIG    1       -4.001  -5.076  -3.553  0.00  0.00    +0.060 C 
ATOM     16  C   LIG    1       -4.070  -4.184  -4.793  0.00  0.00    +0.030 C 
ENDBRANCH  11  15
ENDBRANCH   1  11
TORSDOF 7
ENDMDL
MODEL      696
REMARK  Name = ZINC001201535313
REMARK                            x       y       z     vdW  Elec       q    Type
REMARK                         _______ _______ _______ _____ _____    ______ ____
ROOT
ATOM      1  N   LIG    1        4.439  -3.928   2.552  0.00  0.00    -0.390 N 
ATOM      2  C   LIG    1        5.505  -3.034   3.022  0.00  0.00    +0.300 C 
ATOM      3  H   LIG    1        4.678  -4.285   1.639  0.00  0.00    +0.420 HD
ENDROOT
BRANCH   1   4
ATOM      4  C   LIG    1        3.175  -3.184   2.472  0.00  0.00    +0.250 C 
BRANCH   4   5
ATOM      5  C   LIG    1        3.291  -2.096   1.403  0.00  0.00    +0.030 C 
BRANCH   5   6
ATOM      6  C   LIG    1        1.974  -1.321   1.319  0.00  0.00    +0.040 C 
BRANCH   6   7
ATOM      7  C   LIG    1        2.090  -0.233   0.250  0.00  0.00    +0.050 C 
BRANCH   7   9
ATOM      8  C   LIG    1        0.790   1.833   0.303  0.00  0.00    +0.020 C 
ATOM      9  C   LIG    1        0.793   0.530   0.167  0.00  0.00    -0.060 C 
ENDBRANCH   7   9
ENDBRANCH   6   7
ENDBRANCH   5   6
ENDBRANCH   4   5
ENDBRANCH   1   4
BRANCH   1  10
ATOM     10  C   LIG    1        4.290  -5.048   3.492  0.00  0.00    +0.250 C 
BRANCH  10  11
ATOM     11  C   LIG    1        5.553  -5.910   3.463  0.00  0.00    -0.010 C 
BRANCH  11  12
ATOM     12  C   LIG    1        5.711  -6.538   2.077  0.00  0.00    +0.000 C 
ATOM     13  C   LIG    1        7.048  -7.277   2.001  0.00  0.00    +0.040 C 
ENDBRANCH  11  12
BRANCH  11  14
ATOM     14  C   LIG    1        5.440  -7.016   4.514  0.00  0.00    +0.040 C 
ATOM     15  C   LIG    1        5.410  -6.391   5.911  0.00  0.00    +0.020 C 
ENDBRANCH  11  14
ENDBRANCH  10  11
ENDBRANCH   1  10
TORSDOF 9
ENDMDL
MODEL      697
REMARK  Name = ZINC001201553114
REMARK                            x       y       z     vdW  Elec       q    Type
REMARK                         _______ _______ _______ _____ _____    ______ ____
ROOT
ATOM      1  N   LIG    1       -4.095  -3.942  -2.576  0.00  0.00    -0.390 N 
ATOM      2  C   LIG    1       -5.274  -3.145  -2.942  0.00  0.00    +0.310 C 
ATOM      3  H   LIG    1       -4.260  -4.399  -1.691  0.00  0.00    +0.420 HD
ENDROOT
BRANCH   1   4
ATOM      4  C   LIG    1       -2.925  -3.061  -2.462  0.00  0.00    +0.250 C 
BRANCH   4   5
ATOM      5  C   LIG    1       -3.131  -2.086  -1.301  0.00  0.00    +0.030 C 
BRANCH   5   6
ATOM      6  C   LIG    1       -1.912  -1.169  -1.182  0.00  0.00    +0.040 C 
BRANCH   6   7
ATOM      7  C   LIG    1       -2.119  -0.194  -0.021  0.00  0.00    +0.050 C 
BRANCH   7   9
ATOM      8  C   LIG    1       -1.072   2.010   0.072  0.00  0.00    +0.020 C 
ATOM      9  C   LIG    1       -0.918   0.709   0.095  0.00  0.00    -0.060 C 
ENDBRANCH   7   9
ENDBRANCH   6   7
ENDBRANCH   5   6
ENDBRANCH   4   5
ENDBRANCH   1   4
BRANCH   1  10
ATOM     10  C   LIG    1       -3.847  -4.954  -3.611  0.00  0.00    +0.250 C 
BRANCH  10  11
ATOM     11  C   LIG    1       -5.005  -5.954  -3.634  0.00  0.00    -0.030 C 
ATOM     12  C   LIG    1       -4.817  -6.926  -4.800  0.00  0.00    +0.070 C 
BRANCH  11  13
ATOM     13  C   LIG    1       -5.031  -6.735  -2.318  0.00  0.00    +0.000 C 
BRANCH  13  14
ATOM     14  C   LIG    1       -6.260  -7.646  -2.289  0.00  0.00    +0.010 C 
ATOM     15  C   LIG    1       -6.285  -8.427  -0.974  0.00  0.00    +0.010 C 
ENDBRANCH  13  14
ENDBRANCH  11  13
ENDBRANCH  10  11
ENDBRANCH   1  10
TORSDOF 9
ENDMDL
MODEL      698
REMARK  Name = ZINC001201553113
REMARK                            x       y       z     vdW  Elec       q    Type
REMARK                         _______ _______ _______ _____ _____    ______ ____
ROOT
ATOM      1  N   LIG    1       -3.921  -4.241  -2.347  0.00  0.00    -0.390 N 
ATOM      2  C   LIG    1       -5.042  -3.318  -2.571  0.00  0.00    +0.310 C 
ATOM      3  H   LIG    1       -4.035  -4.697  -1.454  0.00  0.00    +0.420 HD
ENDROOT
BRANCH   1   4
ATOM      4  C   LIG    1       -2.659  -3.489  -2.355  0.00  0.00    +0.250 C 
BRANCH   4   5
ATOM      5  C   LIG    1       -2.633  -2.524  -1.168  0.00  0.00    +0.030 C 
BRANCH   5   6
ATOM      6  C   LIG    1       -1.319  -1.741  -1.176  0.00  0.00    +0.040 C 
BRANCH   6   7
ATOM      7  C   LIG    1       -1.293  -0.775   0.010  0.00  0.00    +0.050 C 
BRANCH   7   9
ATOM      8  C   LIG    1       -0.016   1.306   0.009  0.00  0.00    +0.020 C 
ATOM      9  C   LIG    1        0.002  -0.004   0.002  0.00  0.00    -0.060 C 
ENDBRANCH   7   9
ENDBRANCH   6   7
ENDBRANCH   5   6
ENDBRANCH   4   5
ENDBRANCH   1   4
BRANCH   1  10
ATOM     10  C   LIG    1       -3.897  -5.251  -3.413  0.00  0.00    +0.250 C 
BRANCH  10  11
ATOM     11  C   LIG    1       -5.156  -6.115  -3.327  0.00  0.00    -0.030 C 
ATOM     12  C   LIG    1       -5.141  -6.908  -2.018  0.00  0.00    +0.040 C 
BRANCH  11  13
ATOM     13  C   LIG    1       -5.192  -7.084  -4.510  0.00  0.00    +0.030 C 
BRANCH  13  14
ATOM     14  C   LIG    1       -6.510  -7.862  -4.493  0.00  0.00    +0.000 C 
ATOM     15  C   LIG    1       -6.545  -8.831  -5.676  0.00  0.00    +0.020 C 
ENDBRANCH  13  14
ENDBRANCH  11  13
ENDBRANCH  10  11
ENDBRANCH   1  10
TORSDOF 9
ENDMDL
MODEL      699
REMARK  Name = ZINC001201553105
REMARK                            x       y       z     vdW  Elec       q    Type
REMARK                         _______ _______ _______ _____ _____    ______ ____
ROOT
ATOM      1  N   LIG    1        1.177  -1.868   1.420  0.00  0.00    -0.380 N 
ATOM      2  H   LIG    1        0.619  -2.621   1.795  0.00  0.00    +0.420 HD
ENDROOT
BRANCH   1   3
ATOM      3  C   LIG    1        1.106  -0.711   2.322  0.00  0.00    +0.060 C 
ATOM      4  C   LIG    1        1.912   0.447   1.730  0.00  0.00    +0.080 C 
ATOM      5  C   LIG    1        1.685  -1.090   3.686  0.00  0.00    +0.080 C 
ATOM      6  C   LIG    1       -0.354  -0.282   2.488  0.00  0.00    +0.100 C 
ENDBRANCH   1   3
BRANCH   1   7
ATOM      7  C   LIG    1        0.663  -1.490   0.097  0.00  0.00    +0.280 C 
BRANCH   7   9
ATOM      8  C   LIG    1       -1.377  -0.204  -0.288  0.00  0.00    +0.110 C 
ATOM      9  C   LIG    1       -0.831  -1.302   0.173  0.00  0.00    -0.090 C 
ENDBRANCH   7   9
ENDBRANCH   1   7
BRANCH   1  10
ATOM     10  C   LIG    1        2.573  -2.307   1.296  0.00  0.00    +0.240 C 
BRANCH  10  11
ATOM     11  C   LIG    1        2.629  -3.607   0.490  0.00  0.00    -0.030 C 
ATOM     12  C   LIG    1        1.932  -4.722   1.271  0.00  0.00    +0.040 C 
BRANCH  11  13
ATOM     13  C   LIG    1        4.090  -3.991   0.244  0.00  0.00    +0.040 C 
BRANCH  13  14
ATOM     14  C   LIG    1        4.147  -5.220  -0.666  0.00  0.00    +0.000 C 
ATOM     15  C   LIG    1        5.607  -5.605  -0.912  0.00  0.00    +0.020 C 
ENDBRANCH  13  14
ENDBRANCH  11  13
ENDBRANCH  10  11
ENDBRANCH   1  10
TORSDOF 7
ENDMDL
MODEL      700
REMARK  Name = ZINC000674007608
REMARK                            x       y       z     vdW  Elec       q    Type
REMARK                         _______ _______ _______ _____ _____    ______ ____
ROOT
ATOM      1  N   LIG    1        3.018  -2.330   1.367  0.00  0.00    -0.380 N 
ATOM      2  H   LIG    1        3.964  -1.983   1.342  0.00  0.00    +0.420 HD
ENDROOT
BRANCH   1   3
ATOM      3  C   LIG    1        2.092  -1.215   1.606  0.00  0.00    +0.240 C 
BRANCH   3   4
ATOM      4  C   LIG    1        2.519  -0.460   2.867  0.00  0.00    +0.070 C 
BRANCH   4   6
ATOM      5  C   LIG    1        0.997   0.943   4.161  0.00  0.00    +0.060 C 
ATOM      6  C   LIG    1        1.650   0.759   3.041  0.00  0.00    -0.060 C 
ENDBRANCH   4   6
ENDBRANCH   3   4
ENDBRANCH   1   3
BRANCH   1   7
ATOM      7  C   LIG    1        2.886  -3.316   2.447  0.00  0.00    +0.160 C 
BRANCH   7   8
ATOM      8  C   LIG    1        4.160  -4.160   2.526  0.00  0.00    +0.050 C 
ATOM      9  C   LIG    1        5.337  -3.270   2.932  0.00  0.00    +0.040 C 
ENDBRANCH   7   8
BRANCH   7  10
ATOM     10  C   LIG    1        1.689  -4.226   2.165  0.00  0.00    +0.050 C 
ATOM     11  C   LIG    1        0.397  -3.411   2.250  0.00  0.00    +0.040 C 
ENDBRANCH   7  10
ENDBRANCH   1   7
BRANCH   1  12
ATOM     12  C   LIG    1        2.696  -2.966   0.082  0.00  0.00    +0.250 C 
BRANCH  12  13
ATOM     13  C   LIG    1        2.988  -1.989  -1.058  0.00  0.00    -0.030 C 
ATOM     14  C   LIG    1        2.543  -2.606  -2.386  0.00  0.00    +0.070 C 
ATOM     15  C   LIG    1        4.489  -1.699  -1.109  0.00  0.00    +0.030 C 
ENDBRANCH  12  13
ENDBRANCH   1  12
TORSDOF 8
ENDMDL
MODEL      701
REMARK  Name = ZINC001201553106
REMARK                            x       y       z     vdW  Elec       q    Type
REMARK                         _______ _______ _______ _____ _____    ______ ____
ROOT
ATOM      1  N   LIG    1        1.429  -2.292   0.490  0.00  0.00    -0.380 N 
ATOM      2  H   LIG    1        0.794  -3.074   0.550  0.00  0.00    +0.420 HD
ENDROOT
BRANCH   1   3
ATOM      3  C   LIG    1        1.090  -1.305   1.523  0.00  0.00    +0.060 C 
ATOM      4  C   LIG    1        2.345  -0.521   1.912  0.00  0.00    +0.090 C 
ATOM      5  C   LIG    1        0.537  -2.025   2.755  0.00  0.00    +0.090 C 
ATOM      6  C   LIG    1        0.034  -0.341   0.980  0.00  0.00    +0.090 C 
ENDBRANCH   1   3
BRANCH   1   7
ATOM      7  C   LIG    1        1.317  -1.671  -0.836  0.00  0.00    +0.300 C 
BRANCH   7   9
ATOM      8  C   LIG    1       -0.633  -0.422  -1.610  0.00  0.00    +0.120 C 
ATOM      9  C   LIG    1       -0.136  -1.570  -1.222  0.00  0.00    -0.100 C 
ENDBRANCH   7   9
ENDBRANCH   1   7
BRANCH   1  10
ATOM     10  C   LIG    1        2.806  -2.763   0.696  0.00  0.00    +0.250 C 
BRANCH  10  11
ATOM     11  C   LIG    1        2.882  -3.564   1.997  0.00  0.00    -0.020 C 
ATOM     12  C   LIG    1        1.848  -4.691   1.963  0.00  0.00    +0.030 C 
BRANCH  11  13
ATOM     13  C   LIG    1        4.282  -4.161   2.147  0.00  0.00    +0.030 C 
BRANCH  13  14
ATOM     14  C   LIG    1        4.398  -4.857   3.505  0.00  0.00    +0.000 C 
ATOM     15  C   LIG    1        5.798  -5.454   3.655  0.00  0.00    +0.020 C 
ENDBRANCH  13  14
ENDBRANCH  11  13
ENDBRANCH  10  11
ENDBRANCH   1  10
TORSDOF 7
ENDMDL
MODEL      702
REMARK  Name = ZINC000070591720
REMARK                            x       y       z     vdW  Elec       q    Type
REMARK                         _______ _______ _______ _____ _____    ______ ____
ROOT
ATOM      1  N   LIG    1       -2.658  -3.451  -2.307  0.00  0.00    -0.510 N 
ATOM      2  H   LIG    1       -1.884  -4.093  -2.235  0.00  0.00    +0.430 HD
ATOM      3  H   LIG    1       -2.583  -2.929  -3.167  0.00  0.00    +0.430 HD
ENDROOT
BRANCH   1   4
ATOM      4  C   LIG    1       -2.633  -2.524  -1.168  0.00  0.00    +0.250 C 
BRANCH   4   5
ATOM      5  C   LIG    1       -1.319  -1.741  -1.176  0.00  0.00    +0.030 C 
BRANCH   5   6
ATOM      6  C   LIG    1       -1.293  -0.775   0.010  0.00  0.00    +0.070 C 
BRANCH   6   8
ATOM      7  C   LIG    1       -0.016   1.306   0.009  0.00  0.00    +0.030 C 
ATOM      8  C   LIG    1        0.002  -0.004   0.002  0.00  0.00    -0.070 C 
ENDBRANCH   6   8
ENDBRANCH   5   6
ENDBRANCH   4   5
ENDBRANCH   1   4
BRANCH   1   9
ATOM      9  C   LIG    1       -3.920  -4.202  -2.299  0.00  0.00    +0.250 C 
BRANCH   9  10
ATOM     10  C   LIG    1       -3.946  -5.168  -3.486  0.00  0.00    +0.030 C 
BRANCH  10  11
ATOM     11  C   LIG    1       -5.261  -5.951  -3.478  0.00  0.00    +0.000 C 
ATOM     12  C   LIG    1       -6.428  -4.990  -3.712  0.00  0.00    +0.010 C 
ATOM     13  C   LIG    1       -7.743  -5.773  -3.704  0.00  0.00    +0.010 C 
ATOM     14  C   LIG    1       -7.717  -6.825  -4.814  0.00  0.00    +0.010 C 
ATOM     15  C   LIG    1       -6.550  -7.785  -4.580  0.00  0.00    +0.010 C 
ATOM     16  C   LIG    1       -5.235  -7.003  -4.589  0.00  0.00    +0.020 C 
ENDBRANCH  10  11
ENDBRANCH   9  10
ENDBRANCH   1   9
TORSDOF 7
ENDMDL
MODEL      703
REMARK  Name = ZINC000070592289
REMARK                            x       y       z     vdW  Elec       q    Type
REMARK                         _______ _______ _______ _____ _____    ______ ____
ROOT
ATOM      1  C   LIG    1        2.580  -3.368   2.282  0.00  0.00    +0.170 C 
ENDROOT
BRANCH   1   2
ATOM      2  C   LIG    1        3.912  -4.120   2.279  0.00  0.00    -0.020 C 
ATOM      3  C   LIG    1        5.057  -3.131   2.509  0.00  0.00    +0.010 C 
ATOM      4  C   LIG    1        6.389  -3.884   2.507  0.00  0.00    +0.020 C 
ATOM      5  C   LIG    1        6.386  -4.930   3.623  0.00  0.00    +0.010 C 
ATOM      6  C   LIG    1        5.242  -5.919   3.393  0.00  0.00    +0.020 C 
ATOM      7  C   LIG    1        3.909  -5.166   3.396  0.00  0.00    +0.040 C 
ENDBRANCH   1   2
BRANCH   1   8
ATOM      8  N   LIG    1        2.535  -2.448   1.138  0.00  0.00    -0.510 N 
ATOM      9  H   LIG    1        1.698  -1.887   1.190  0.00  0.00    +0.430 HD
ATOM     10  H   LIG    1        3.345  -1.847   1.157  0.00  0.00    +0.420 HD
BRANCH   8  11
ATOM     11  C   LIG    1        2.529  -3.220  -0.112  0.00  0.00    +0.250 C 
BRANCH  11  12
ATOM     12  C   LIG    1        2.350  -2.271  -1.298  0.00  0.00    +0.060 C 
BRANCH  12  14
ATOM     13  C   LIG    1        1.339  -2.954  -3.413  0.00  0.00    +0.060 C 
ATOM     14  C   LIG    1        2.344  -3.063  -2.579  0.00  0.00    -0.070 C 
ENDBRANCH  12  14
ENDBRANCH  11  12
ENDBRANCH   8  11
ENDBRANCH   1   8
BRANCH   1  15
ATOM     15  C   LIG    1        2.447  -2.572   3.582  0.00  0.00    +0.050 C 
ATOM     16  C   LIG    1        1.061  -1.925   3.644  0.00  0.00    +0.030 C 
ENDBRANCH   1  15
TORSDOF 6
ENDMDL
MODEL      704
REMARK  Name = ZINC000070591907
REMARK                            x       y       z     vdW  Elec       q    Type
REMARK                         _______ _______ _______ _____ _____    ______ ____
ROOT
ATOM      1  N   LIG    1       -2.658  -3.451  -2.307  0.00  0.00    -0.510 N 
ATOM      2  H   LIG    1       -1.884  -4.093  -2.235  0.00  0.00    +0.430 HD
ATOM      3  H   LIG    1       -2.583  -2.929  -3.167  0.00  0.00    +0.430 HD
ENDROOT
BRANCH   1   4
ATOM      4  C   LIG    1       -3.920  -4.202  -2.299  0.00  0.00    +0.170 C 
ATOM      5  C   LIG    1       -3.978  -5.090  -1.054  0.00  0.00    +0.040 C 
ATOM      6  C   LIG    1       -5.292  -5.873  -1.046  0.00  0.00    +0.030 C 
ATOM      7  C   LIG    1       -5.373  -6.747  -2.299  0.00  0.00    +0.020 C 
ATOM      8  C   LIG    1       -5.316  -5.859  -3.544  0.00  0.00    +0.050 C 
ATOM      9  C   LIG    1       -4.001  -5.076  -3.553  0.00  0.00    -0.010 C 
BRANCH   9  10
ATOM     10  C   LIG    1       -3.944  -4.189  -4.798  0.00  0.00    +0.000 C 
ATOM     11  C   LIG    1       -3.900  -5.068  -6.049  0.00  0.00    +0.040 C 
ENDBRANCH   9  10
ENDBRANCH   1   4
BRANCH   1  12
ATOM     12  C   LIG    1       -2.633  -2.524  -1.168  0.00  0.00    +0.250 C 
BRANCH  12  13
ATOM     13  C   LIG    1       -1.319  -1.741  -1.176  0.00  0.00    +0.040 C 
BRANCH  13  14
ATOM     14  C   LIG    1       -1.293  -0.775   0.010  0.00  0.00    +0.070 C 
BRANCH  14  16
ATOM     15  C   LIG    1       -0.016   1.306   0.009  0.00  0.00    +0.030 C 
ATOM     16  C   LIG    1        0.002  -0.004   0.002  0.00  0.00    -0.070 C 
ENDBRANCH  14  16
ENDBRANCH  13  14
ENDBRANCH  12  13
ENDBRANCH   1  12
TORSDOF 6
ENDMDL
MODEL      705
REMARK  Name = ZINC000070591908
REMARK                            x       y       z     vdW  Elec       q    Type
REMARK                         _______ _______ _______ _____ _____    ______ ____
ROOT
ATOM      1  N   LIG    1       -2.658  -3.451  -2.307  0.00  0.00    -0.510 N 
ATOM      2  H   LIG    1       -1.884  -4.093  -2.235  0.00  0.00    +0.420 HD
ATOM      3  H   LIG    1       -2.583  -2.929  -3.167  0.00  0.00    +0.430 HD
ENDROOT
BRANCH   1   4
ATOM      4  C   LIG    1       -3.920  -4.202  -2.299  0.00  0.00    +0.170 C 
ATOM      5  C   LIG    1       -3.978  -5.090  -1.054  0.00  0.00    +0.060 C 
ATOM      6  C   LIG    1       -2.801  -6.068  -1.071  0.00  0.00    +0.010 C 
ATOM      7  C   LIG    1       -2.882  -6.942  -2.324  0.00  0.00    +0.030 C 
ATOM      8  C   LIG    1       -2.825  -6.055  -3.569  0.00  0.00    +0.020 C 
ATOM      9  C   LIG    1       -4.001  -5.076  -3.553  0.00  0.00    +0.010 C 
BRANCH   9  10
ATOM     10  C   LIG    1       -3.944  -4.189  -4.798  0.00  0.00    -0.000 C 
ATOM     11  C   LIG    1       -4.150  -5.049  -6.046  0.00  0.00    +0.030 C 
ENDBRANCH   9  10
ENDBRANCH   1   4
BRANCH   1  12
ATOM     12  C   LIG    1       -2.633  -2.524  -1.168  0.00  0.00    +0.240 C 
BRANCH  12  13
ATOM     13  C   LIG    1       -1.319  -1.741  -1.176  0.00  0.00    +0.040 C 
BRANCH  13  14
ATOM     14  C   LIG    1       -1.293  -0.775   0.010  0.00  0.00    +0.070 C 
BRANCH  14  16
ATOM     15  C   LIG    1       -0.016   1.306   0.009  0.00  0.00    +0.030 C 
ATOM     16  C   LIG    1        0.002  -0.004   0.002  0.00  0.00    -0.070 C 
ENDBRANCH  14  16
ENDBRANCH  13  14
ENDBRANCH  12  13
ENDBRANCH   1  12
TORSDOF 6
ENDMDL
MODEL      706
REMARK  Name = ZINC000070591905
REMARK                            x       y       z     vdW  Elec       q    Type
REMARK                         _______ _______ _______ _____ _____    ______ ____
ROOT
ATOM      1  N   LIG    1       -2.658  -3.451  -2.307  0.00  0.00    -0.510 N 
ATOM      2  H   LIG    1       -1.884  -4.093  -2.235  0.00  0.00    +0.430 HD
ATOM      3  H   LIG    1       -2.583  -2.929  -3.167  0.00  0.00    +0.420 HD
ENDROOT
BRANCH   1   4
ATOM      4  C   LIG    1       -3.920  -4.202  -2.299  0.00  0.00    +0.170 C 
ATOM      5  C   LIG    1       -5.088  -3.242  -2.534  0.00  0.00    +0.060 C 
ATOM      6  C   LIG    1       -4.915  -2.549  -3.887  0.00  0.00    +0.010 C 
ATOM      7  C   LIG    1       -4.889  -3.601  -4.998  0.00  0.00    +0.030 C 
ATOM      8  C   LIG    1       -3.722  -4.562  -4.764  0.00  0.00    +0.020 C 
ATOM      9  C   LIG    1       -3.894  -5.254  -3.410  0.00  0.00    +0.010 C 
BRANCH   9  10
ATOM     10  C   LIG    1       -2.727  -6.215  -3.176  0.00  0.00    -0.000 C 
ATOM     11  C   LIG    1       -2.775  -7.338  -4.214  0.00  0.00    +0.030 C 
ENDBRANCH   9  10
ENDBRANCH   1   4
BRANCH   1  12
ATOM     12  C   LIG    1       -2.633  -2.524  -1.168  0.00  0.00    +0.240 C 
BRANCH  12  13
ATOM     13  C   LIG    1       -1.319  -1.741  -1.176  0.00  0.00    +0.040 C 
BRANCH  13  14
ATOM     14  C   LIG    1       -1.293  -0.775   0.010  0.00  0.00    +0.070 C 
BRANCH  14  16
ATOM     15  C   LIG    1       -0.016   1.306   0.009  0.00  0.00    +0.030 C 
ATOM     16  C   LIG    1        0.002  -0.004   0.002  0.00  0.00    -0.070 C 
ENDBRANCH  14  16
ENDBRANCH  13  14
ENDBRANCH  12  13
ENDBRANCH   1  12
TORSDOF 6
ENDMDL
MODEL      707
REMARK  Name = ZINC000070591912
REMARK                            x       y       z     vdW  Elec       q    Type
REMARK                         _______ _______ _______ _____ _____    ______ ____
ROOT
ATOM      1  N   LIG    1       -2.658  -3.451  -2.307  0.00  0.00    -0.510 N 
ATOM      2  H   LIG    1       -1.884  -4.093  -2.235  0.00  0.00    +0.430 HD
ATOM      3  H   LIG    1       -2.583  -2.929  -3.167  0.00  0.00    +0.420 HD
ENDROOT
BRANCH   1   4
ATOM      4  C   LIG    1       -3.920  -4.202  -2.299  0.00  0.00    +0.170 C 
ATOM      5  C   LIG    1       -5.088  -3.242  -2.534  0.00  0.00    +0.060 C 
ATOM      6  C   LIG    1       -4.915  -2.549  -3.887  0.00  0.00    +0.020 C 
ATOM      7  C   LIG    1       -4.889  -3.601  -4.998  0.00  0.00    -0.010 C 
ATOM      8  C   LIG    1       -3.722  -4.562  -4.764  0.00  0.00    +0.020 C 
ATOM      9  C   LIG    1       -3.894  -5.254  -3.410  0.00  0.00    +0.060 C 
BRANCH   7  10
ATOM     10  C   LIG    1       -4.716  -2.909  -6.352  0.00  0.00    +0.010 C 
ATOM     11  C   LIG    1       -4.816  -3.947  -7.471  0.00  0.00    +0.020 C 
ENDBRANCH   7  10
ENDBRANCH   1   4
BRANCH   1  12
ATOM     12  C   LIG    1       -2.633  -2.524  -1.168  0.00  0.00    +0.250 C 
BRANCH  12  13
ATOM     13  C   LIG    1       -1.319  -1.741  -1.176  0.00  0.00    +0.040 C 
BRANCH  13  14
ATOM     14  C   LIG    1       -1.293  -0.775   0.010  0.00  0.00    +0.070 C 
BRANCH  14  16
ATOM     15  C   LIG    1       -0.016   1.306   0.009  0.00  0.00    +0.030 C 
ATOM     16  C   LIG    1        0.002  -0.004   0.002  0.00  0.00    -0.070 C 
ENDBRANCH  14  16
ENDBRANCH  13  14
ENDBRANCH  12  13
ENDBRANCH   1  12
TORSDOF 6
ENDMDL
MODEL      708
REMARK  Name = ZINC000070591924
REMARK                            x       y       z     vdW  Elec       q    Type
REMARK                         _______ _______ _______ _____ _____    ______ ____
ROOT
ATOM      1  N   LIG    1        2.755  -3.402   2.274  0.00  0.00    -0.510 N 
ATOM      2  H   LIG    1        1.998  -4.065   2.195  0.00  0.00    +0.430 HD
ATOM      3  H   LIG    1        2.666  -2.892   3.140  0.00  0.00    +0.430 HD
ENDROOT
BRANCH   1   4
ATOM      4  C   LIG    1        4.037  -4.120   2.258  0.00  0.00    +0.170 C 
ATOM      5  C   LIG    1        5.178  -3.130   2.503  0.00  0.00    +0.090 C 
BRANCH   4   6
ATOM      6  C   LIG    1        4.040  -5.184   3.357  0.00  0.00    +0.050 C 
BRANCH   6   7
ATOM      7  C   LIG    1        2.980  -6.242   3.045  0.00  0.00    -0.000 C 
BRANCH   7   8
ATOM      8  C   LIG    1        2.983  -7.306   4.144  0.00  0.00    +0.020 C 
BRANCH   8   9
ATOM      9  C   LIG    1        1.923  -8.365   3.833  0.00  0.00    -0.030 C 
ATOM     10  C   LIG    1        0.534  -7.727   3.890  0.00  0.00    +0.020 C 
ATOM     11  C   LIG    1        2.010  -9.492   4.863  0.00  0.00    +0.030 C 
ENDBRANCH   8   9
ENDBRANCH   7   8
ENDBRANCH   6   7
ENDBRANCH   4   6
ENDBRANCH   1   4
BRANCH   1  12
ATOM     12  C   LIG    1        2.705  -2.464   1.145  0.00  0.00    +0.250 C 
BRANCH  12  13
ATOM     13  C   LIG    1        1.370  -1.717   1.161  0.00  0.00    +0.040 C 
BRANCH  13  14
ATOM     14  C   LIG    1        1.317  -0.740  -0.015  0.00  0.00    +0.070 C 
BRANCH  14  16
ATOM     15  C   LIG    1       -0.016   1.306   0.009  0.00  0.00    +0.030 C 
ATOM     16  C   LIG    1        0.002  -0.004   0.002  0.00  0.00    -0.070 C 
ENDBRANCH  14  16
ENDBRANCH  13  14
ENDBRANCH  12  13
ENDBRANCH   1  12
TORSDOF 9
ENDMDL
MODEL      709
REMARK  Name = ZINC000070591923
REMARK                            x       y       z     vdW  Elec       q    Type
REMARK                         _______ _______ _______ _____ _____    ______ ____
ROOT
ATOM      1  N   LIG    1        2.755  -3.402   2.274  0.00  0.00    -0.510 N 
ATOM      2  H   LIG    1        1.998  -4.065   2.195  0.00  0.00    +0.430 HD
ATOM      3  H   LIG    1        2.666  -2.892   3.140  0.00  0.00    +0.430 HD
ENDROOT
BRANCH   1   4
ATOM      4  C   LIG    1        4.037  -4.120   2.258  0.00  0.00    +0.170 C 
ATOM      5  C   LIG    1        4.118  -4.991   1.003  0.00  0.00    +0.090 C 
BRANCH   4   6
ATOM      6  C   LIG    1        4.142  -5.005   3.501  0.00  0.00    +0.050 C 
BRANCH   6   7
ATOM      7  C   LIG    1        4.186  -4.124   4.752  0.00  0.00    -0.000 C 
BRANCH   7   8
ATOM      8  C   LIG    1        4.291  -5.009   5.995  0.00  0.00    +0.020 C 
BRANCH   8   9
ATOM      9  C   LIG    1        4.336  -4.129   7.246  0.00  0.00    -0.030 C 
ATOM     10  C   LIG    1        5.617  -3.292   7.235  0.00  0.00    +0.020 C 
ATOM     11  C   LIG    1        4.315  -5.014   8.494  0.00  0.00    +0.030 C 
ENDBRANCH   8   9
ENDBRANCH   7   8
ENDBRANCH   6   7
ENDBRANCH   4   6
ENDBRANCH   1   4
BRANCH   1  12
ATOM     12  C   LIG    1        2.705  -2.464   1.145  0.00  0.00    +0.250 C 
BRANCH  12  13
ATOM     13  C   LIG    1        1.370  -1.717   1.161  0.00  0.00    +0.040 C 
BRANCH  13  14
ATOM     14  C   LIG    1        1.317  -0.740  -0.015  0.00  0.00    +0.070 C 
BRANCH  14  16
ATOM     15  C   LIG    1       -0.016   1.306   0.009  0.00  0.00    +0.030 C 
ATOM     16  C   LIG    1        0.002  -0.004   0.002  0.00  0.00    -0.070 C 
ENDBRANCH  14  16
ENDBRANCH  13  14
ENDBRANCH  12  13
ENDBRANCH   1  12
TORSDOF 9
ENDMDL
MODEL      710
REMARK  Name = ZINC000070592287
REMARK                            x       y       z     vdW  Elec       q    Type
REMARK                         _______ _______ _______ _____ _____    ______ ____
ROOT
ATOM      1  N   LIG    1       -2.658  -3.451  -2.307  0.00  0.00    -0.510 N 
ATOM      2  H   LIG    1       -1.884  -4.093  -2.235  0.00  0.00    +0.420 HD
ATOM      3  H   LIG    1       -2.583  -2.929  -3.167  0.00  0.00    +0.430 HD
ENDROOT
BRANCH   1   4
ATOM      4  C   LIG    1       -3.920  -4.202  -2.299  0.00  0.00    +0.170 C 
ATOM      5  C   LIG    1       -3.978  -5.090  -1.054  0.00  0.00    +0.090 C 
BRANCH   4   6
ATOM      6  C   LIG    1       -4.001  -5.076  -3.553  0.00  0.00    -0.020 C 
ATOM      7  C   LIG    1       -2.899  -6.136  -3.507  0.00  0.00    +0.010 C 
ATOM      8  C   LIG    1       -2.980  -7.010  -4.761  0.00  0.00    +0.020 C 
ATOM      9  C   LIG    1       -4.346  -7.697  -4.816  0.00  0.00    +0.010 C 
ATOM     10  C   LIG    1       -5.448  -6.637  -4.861  0.00  0.00    +0.020 C 
ATOM     11  C   LIG    1       -5.367  -5.763  -3.608  0.00  0.00    +0.040 C 
ENDBRANCH   4   6
ENDBRANCH   1   4
BRANCH   1  12
ATOM     12  C   LIG    1       -2.633  -2.524  -1.168  0.00  0.00    +0.250 C 
BRANCH  12  13
ATOM     13  C   LIG    1       -1.319  -1.741  -1.176  0.00  0.00    +0.040 C 
BRANCH  13  14
ATOM     14  C   LIG    1       -1.293  -0.775   0.010  0.00  0.00    +0.070 C 
BRANCH  14  16
ATOM     15  C   LIG    1       -0.016   1.306   0.009  0.00  0.00    +0.030 C 
ATOM     16  C   LIG    1        0.002  -0.004   0.002  0.00  0.00    -0.070 C 
ENDBRANCH  14  16
ENDBRANCH  13  14
ENDBRANCH  12  13
ENDBRANCH   1  12
TORSDOF 6
ENDMDL
MODEL      711
REMARK  Name = ZINC000070592286
REMARK                            x       y       z     vdW  Elec       q    Type
REMARK                         _______ _______ _______ _____ _____    ______ ____
ROOT
ATOM      1  N   LIG    1       -2.658  -3.451  -2.307  0.00  0.00    -0.510 N 
ATOM      2  H   LIG    1       -1.884  -4.093  -2.235  0.00  0.00    +0.430 HD
ATOM      3  H   LIG    1       -2.583  -2.929  -3.167  0.00  0.00    +0.430 HD
ENDROOT
BRANCH   1   4
ATOM      4  C   LIG    1       -3.920  -4.202  -2.299  0.00  0.00    +0.170 C 
ATOM      5  C   LIG    1       -5.088  -3.242  -2.534  0.00  0.00    +0.080 C 
BRANCH   4   6
ATOM      6  C   LIG    1       -3.894  -5.254  -3.410  0.00  0.00    -0.010 C 
ATOM      7  C   LIG    1       -2.727  -6.215  -3.176  0.00  0.00    +0.010 C 
ATOM      8  C   LIG    1       -2.701  -7.266  -4.287  0.00  0.00    +0.020 C 
ATOM      9  C   LIG    1       -4.016  -8.050  -4.279  0.00  0.00    +0.010 C 
ATOM     10  C   LIG    1       -5.183  -7.089  -4.513  0.00  0.00    +0.020 C 
ATOM     11  C   LIG    1       -5.209  -6.037  -3.402  0.00  0.00    +0.040 C 
ENDBRANCH   4   6
ENDBRANCH   1   4
BRANCH   1  12
ATOM     12  C   LIG    1       -2.633  -2.524  -1.168  0.00  0.00    +0.250 C 
BRANCH  12  13
ATOM     13  C   LIG    1       -1.319  -1.741  -1.176  0.00  0.00    +0.040 C 
BRANCH  13  14
ATOM     14  C   LIG    1       -1.293  -0.775   0.010  0.00  0.00    +0.070 C 
BRANCH  14  16
ATOM     15  C   LIG    1       -0.016   1.306   0.009  0.00  0.00    +0.030 C 
ATOM     16  C   LIG    1        0.002  -0.004   0.002  0.00  0.00    -0.070 C 
ENDBRANCH  14  16
ENDBRANCH  13  14
ENDBRANCH  12  13
ENDBRANCH   1  12
TORSDOF 6
ENDMDL
MODEL      712
REMARK  Name = ZINC000070592288
REMARK                            x       y       z     vdW  Elec       q    Type
REMARK                         _______ _______ _______ _____ _____    ______ ____
ROOT
ATOM      1  C   LIG    1        2.523  -3.439   2.522  0.00  0.00    +0.170 C 
ENDROOT
BRANCH   1   2
ATOM      2  C   LIG    1        3.857  -4.133   2.805  0.00  0.00    -0.010 C 
ATOM      3  C   LIG    1        4.850  -3.117   3.373  0.00  0.00    +0.010 C 
ATOM      4  C   LIG    1        6.184  -3.811   3.656  0.00  0.00    +0.020 C 
ATOM      5  C   LIG    1        5.968  -4.936   4.671  0.00  0.00    +0.010 C 
ATOM      6  C   LIG    1        4.975  -5.952   4.103  0.00  0.00    +0.020 C 
ATOM      7  C   LIG    1        3.641  -5.258   3.820  0.00  0.00    +0.040 C 
ENDBRANCH   1   2
BRANCH   1   8
ATOM      8  N   LIG    1        2.730  -2.360   1.548  0.00  0.00    -0.510 N 
ATOM      9  H   LIG    1        1.843  -1.932   1.326  0.00  0.00    +0.430 HD
ATOM     10  H   LIG    1        3.349  -1.666   1.940  0.00  0.00    +0.430 HD
BRANCH   8  11
ATOM     11  C   LIG    1        3.326  -2.912   0.324  0.00  0.00    +0.260 C 
BRANCH  11  12
ATOM     12  C   LIG    1        3.529  -1.790  -0.696  0.00  0.00    +0.070 C 
BRANCH  12  14
ATOM     13  C   LIG    1        3.556  -2.168  -3.108  0.00  0.00    +0.060 C 
ATOM     14  C   LIG    1        4.141  -2.356  -1.951  0.00  0.00    -0.060 C 
ENDBRANCH  12  14
ENDBRANCH  11  12
ENDBRANCH   8  11
ENDBRANCH   1   8
BRANCH   1  15
ATOM     15  C   LIG    1        1.530  -4.455   1.954  0.00  0.00    +0.050 C 
ATOM     16  C   LIG    1        0.166  -3.787   1.770  0.00  0.00    +0.020 C 
ENDBRANCH   1  15
TORSDOF 6
ENDMDL
MODEL      713
REMARK  Name = ZINC000070591906
REMARK                            x       y       z     vdW  Elec       q    Type
REMARK                         _______ _______ _______ _____ _____    ______ ____
ROOT
ATOM      1  N   LIG    1       -2.658  -3.451  -2.307  0.00  0.00    -0.510 N 
ATOM      2  H   LIG    1       -1.884  -4.093  -2.235  0.00  0.00    +0.430 HD
ATOM      3  H   LIG    1       -2.583  -2.929  -3.167  0.00  0.00    +0.430 HD
ENDROOT
BRANCH   1   4
ATOM      4  C   LIG    1       -3.920  -4.202  -2.299  0.00  0.00    +0.170 C 
ATOM      5  C   LIG    1       -5.088  -3.242  -2.534  0.00  0.00    +0.040 C 
ATOM      6  C   LIG    1       -6.402  -4.024  -2.525  0.00  0.00    +0.030 C 
ATOM      7  C   LIG    1       -6.376  -5.076  -3.636  0.00  0.00    +0.020 C 
ATOM      8  C   LIG    1       -5.209  -6.037  -3.402  0.00  0.00    +0.050 C 
ATOM      9  C   LIG    1       -3.894  -5.254  -3.410  0.00  0.00    -0.010 C 
BRANCH   9  10
ATOM     10  C   LIG    1       -2.727  -6.215  -3.176  0.00  0.00    +0.000 C 
ATOM     11  C   LIG    1       -2.625  -7.189  -4.351  0.00  0.00    +0.040 C 
ENDBRANCH   9  10
ENDBRANCH   1   4
BRANCH   1  12
ATOM     12  C   LIG    1       -2.633  -2.524  -1.168  0.00  0.00    +0.250 C 
BRANCH  12  13
ATOM     13  C   LIG    1       -1.319  -1.741  -1.176  0.00  0.00    +0.040 C 
BRANCH  13  14
ATOM     14  C   LIG    1       -1.293  -0.775   0.010  0.00  0.00    +0.070 C 
BRANCH  14  16
ATOM     15  C   LIG    1       -0.016   1.306   0.009  0.00  0.00    +0.030 C 
ATOM     16  C   LIG    1        0.002  -0.004   0.002  0.00  0.00    -0.070 C 
ENDBRANCH  14  16
ENDBRANCH  13  14
ENDBRANCH  12  13
ENDBRANCH   1  12
TORSDOF 6
ENDMDL
MODEL      714
REMARK  Name = ZINC000070655353
REMARK                            x       y       z     vdW  Elec       q    Type
REMARK                         _______ _______ _______ _____ _____    ______ ____
ROOT
ATOM      1  N   LIG    1        2.755  -3.402   2.274  0.00  0.00    -0.510 N 
ATOM      2  H   LIG    1        1.998  -4.065   2.195  0.00  0.00    +0.430 HD
ATOM      3  H   LIG    1        2.666  -2.892   3.140  0.00  0.00    +0.430 HD
ENDROOT
BRANCH   1   4
ATOM      4  C   LIG    1        4.037  -4.120   2.258  0.00  0.00    +0.170 C 
ATOM      5  C   LIG    1        5.178  -3.130   2.503  0.00  0.00    +0.040 C 
ATOM      6  C   LIG    1        6.513  -3.877   2.486  0.00  0.00    +0.060 C 
ATOM      7  C   LIG    1        6.516  -4.941   3.585  0.00  0.00    -0.070 C 
ATOM      8  C   LIG    1        5.375  -5.931   3.340  0.00  0.00    +0.060 C 
ATOM      9  C   LIG    1        6.325  -4.269   4.946  0.00  0.00    +0.020 C 
ATOM     10  C   LIG    1        7.851  -5.688   3.568  0.00  0.00    +0.030 C 
ATOM     11  C   LIG    1        4.040  -5.184   3.357  0.00  0.00    +0.040 C 
ENDBRANCH   1   4
BRANCH   1  12
ATOM     12  C   LIG    1        2.705  -2.464   1.145  0.00  0.00    +0.250 C 
BRANCH  12  13
ATOM     13  C   LIG    1        1.370  -1.717   1.161  0.00  0.00    +0.040 C 
BRANCH  13  14
ATOM     14  C   LIG    1        1.317  -0.740  -0.015  0.00  0.00    +0.070 C 
BRANCH  14  16
ATOM     15  C   LIG    1       -0.016   1.306   0.009  0.00  0.00    +0.030 C 
ATOM     16  C   LIG    1        0.002  -0.004   0.002  0.00  0.00    -0.070 C 
ENDBRANCH  14  16
ENDBRANCH  13  14
ENDBRANCH  12  13
ENDBRANCH   1  12
TORSDOF 5
ENDMDL
MODEL      715
REMARK  Name = ZINC001201620077
REMARK                            x       y       z     vdW  Elec       q    Type
REMARK                         _______ _______ _______ _____ _____    ______ ____
ROOT
ATOM      1  N   LIG    1       -4.243  -6.121   0.010  0.00  0.00    -0.390 N 
ATOM      2  C   LIG    1       -3.663  -6.596  -1.254  0.00  0.00    +0.310 C 
ATOM      3  H   LIG    1       -3.685  -6.454   0.782  0.00  0.00    +0.420 HD
ENDROOT
BRANCH   1   4
ATOM      4  C   LIG    1       -4.263  -4.652   0.018  0.00  0.00    +0.250 C 
BRANCH   4   5
ATOM      5  C   LIG    1       -2.827  -4.123   0.007  0.00  0.00    +0.030 C 
BRANCH   5   6
ATOM      6  C   LIG    1       -2.848  -2.593   0.015  0.00  0.00    +0.020 C 
BRANCH   6   7
ATOM      7  C   LIG    1       -1.413  -2.063   0.004  0.00  0.00    +0.020 C 
BRANCH   7   8
ATOM      8  C   LIG    1       -1.433  -0.534   0.013  0.00  0.00    +0.000 C 
BRANCH   8  10
ATOM      9  C   LIG    1       -0.019   1.526   0.010  0.00  0.00    +0.000 C 
ATOM     10  C   LIG    1        0.002  -0.004   0.002  0.00  0.00    -0.010 C 
ENDBRANCH   8  10
ENDBRANCH   7   8
ENDBRANCH   6   7
ENDBRANCH   5   6
ENDBRANCH   4   5
ENDBRANCH   1   4
BRANCH   1  11
ATOM     11  C   LIG    1       -5.614  -6.630   0.141  0.00  0.00    +0.250 C 
BRANCH  11  12
ATOM     12  C   LIG    1       -5.583  -8.156   0.258  0.00  0.00    +0.030 C 
BRANCH  12  13
ATOM     13  C   LIG    1       -7.012  -8.686   0.394  0.00  0.00    -0.010 C 
ATOM     14  C   LIG    1       -6.975 -10.196   0.636  0.00  0.00    +0.040 C 
ATOM     15  C   LIG    1       -7.789  -8.394  -0.891  0.00  0.00    +0.020 C 
ENDBRANCH  12  13
ENDBRANCH  11  12
ENDBRANCH   1  11
TORSDOF 9
ENDMDL
MODEL      716
REMARK  Name = ZINC000126891006
REMARK                            x       y       z     vdW  Elec       q    Type
REMARK                         _______ _______ _______ _____ _____    ______ ____
ROOT
ATOM      1  N   LIG    1       -1.303  -0.880  -2.419  0.00  0.00    -0.510 N 
ATOM      2  H   LIG    1       -1.941  -0.198  -2.800  0.00  0.00    +0.420 HD
ATOM      3  H   LIG    1       -1.681  -1.252  -1.560  0.00  0.00    +0.420 HD
ENDROOT
BRANCH   1   4
ATOM      4  C   LIG    1       -1.119  -1.972  -3.385  0.00  0.00    +0.160 C 
ATOM      5  C   LIG    1       -2.435  -2.733  -3.551  0.00  0.00    +0.040 C 
ATOM      6  C   LIG    1       -2.243  -3.870  -4.558  0.00  0.00    +0.060 C 
ATOM      7  C   LIG    1       -1.817  -3.289  -5.907  0.00  0.00    -0.070 C 
ATOM      8  C   LIG    1       -0.500  -2.527  -5.742  0.00  0.00    +0.040 C 
ATOM      9  C   LIG    1       -2.898  -2.334  -6.417  0.00  0.00    +0.020 C 
ATOM     10  C   LIG    1       -1.625  -4.425  -6.914  0.00  0.00    +0.030 C 
ATOM     11  C   LIG    1       -0.692  -1.391  -4.735  0.00  0.00    +0.040 C 
ENDBRANCH   1   4
BRANCH   1  12
ATOM     12  C   LIG    1       -0.007  -0.242  -2.149  0.00  0.00    +0.170 C 
ATOM     13  C   LIG    1        0.913  -1.237  -1.439  0.00  0.00    +0.090 C 
BRANCH  12  14
ATOM     14  C   LIG    1       -0.219   0.983  -1.257  0.00  0.00    +0.100 C 
BRANCH  14  16
ATOM     15  C   LIG    1       -2.131   2.484  -1.484  0.00  0.00    +0.060 C 
ATOM     16  C   LIG    1       -1.024   2.015  -2.004  0.00  0.00    -0.090 C 
ENDBRANCH  14  16
ENDBRANCH  12  14
ENDBRANCH   1  12
TORSDOF 4
ENDMDL
MODEL      717
REMARK  Name = ZINC000126890776
REMARK                            x       y       z     vdW  Elec       q    Type
REMARK                         _______ _______ _______ _____ _____    ______ ____
ROOT
ATOM      1  N   LIG    1       -0.264  -2.750  -1.010  0.00  0.00    -0.510 N 
ATOM      2  H   LIG    1       -0.466  -3.317  -0.200  0.00  0.00    +0.430 HD
ATOM      3  H   LIG    1        0.625  -2.290  -0.885  0.00  0.00    +0.420 HD
ENDROOT
BRANCH   1   4
ATOM      4  C   LIG    1       -0.210  -3.603  -2.204  0.00  0.00    +0.160 C 
ATOM      5  C   LIG    1        0.218  -2.766  -3.411  0.00  0.00    +0.040 C 
ATOM      6  C   LIG    1        0.274  -3.655  -4.655  0.00  0.00    +0.040 C 
ATOM      7  C   LIG    1        1.285  -4.782  -4.431  0.00  0.00    -0.070 C 
ATOM      8  C   LIG    1        0.856  -5.619  -3.225  0.00  0.00    +0.060 C 
ATOM      9  C   LIG    1        2.668  -4.182  -4.171  0.00  0.00    +0.020 C 
ATOM     10  C   LIG    1        1.341  -5.671  -5.675  0.00  0.00    +0.030 C 
ATOM     11  C   LIG    1        0.800  -4.730  -1.981  0.00  0.00    +0.040 C 
ENDBRANCH   1   4
BRANCH   1  12
ATOM     12  C   LIG    1       -1.319  -1.741  -1.176  0.00  0.00    +0.170 C 
ATOM     13  C   LIG    1       -2.682  -2.433  -1.241  0.00  0.00    +0.090 C 
BRANCH  12  14
ATOM     14  C   LIG    1       -1.293  -0.775   0.010  0.00  0.00    +0.090 C 
BRANCH  14  16
ATOM     15  C   LIG    1       -0.016   1.306   0.009  0.00  0.00    +0.090 C 
ATOM     16  C   LIG    1        0.002  -0.004   0.002  0.00  0.00    -0.110 C 
ENDBRANCH  14  16
ENDBRANCH  12  14
ENDBRANCH   1  12
TORSDOF 4
ENDMDL
MODEL      718
REMARK  Name = ZINC000126894640
REMARK                            x       y       z     vdW  Elec       q    Type
REMARK                         _______ _______ _______ _____ _____    ______ ____
ROOT
ATOM      1  N   LIG    1        0.343  -2.753   0.984  0.00  0.00    -0.510 N 
ATOM      2  H   LIG    1        0.560  -3.305   0.168  0.00  0.00    +0.420 HD
ATOM      3  H   LIG    1       -0.558  -2.315   0.864  0.00  0.00    +0.420 HD
ENDROOT
BRANCH   1   4
ATOM      4  C   LIG    1        0.312  -3.620   2.168  0.00  0.00    +0.160 C 
ATOM      5  C   LIG    1       -0.138  -2.808   3.384  0.00  0.00    +0.060 C 
ATOM      6  C   LIG    1       -1.537  -2.243   3.130  0.00  0.00    +0.020 C 
ATOM      7  C   LIG    1       -2.517  -3.394   2.894  0.00  0.00    -0.010 C 
ATOM      8  C   LIG    1       -2.066  -4.206   1.678  0.00  0.00    +0.020 C 
ATOM      9  C   LIG    1       -0.667  -4.771   1.933  0.00  0.00    +0.060 C 
BRANCH   7  10
ATOM     10  C   LIG    1       -3.916  -2.829   2.640  0.00  0.00    +0.010 C 
ATOM     11  C   LIG    1       -4.918  -3.979   2.528  0.00  0.00    +0.020 C 
ENDBRANCH   7  10
ENDBRANCH   1   4
BRANCH   1  12
ATOM     12  C   LIG    1        1.370  -1.717   1.161  0.00  0.00    +0.170 C 
ATOM     13  C   LIG    1        2.751  -2.373   1.218  0.00  0.00    +0.090 C 
BRANCH  12  14
ATOM     14  C   LIG    1        1.317  -0.740  -0.015  0.00  0.00    +0.090 C 
BRANCH  14  16
ATOM     15  C   LIG    1       -0.016   1.306   0.009  0.00  0.00    +0.090 C 
ATOM     16  C   LIG    1        0.002  -0.004   0.002  0.00  0.00    -0.110 C 
ENDBRANCH  14  16
ENDBRANCH  12  14
ENDBRANCH   1  12
TORSDOF 5
ENDMDL
MODEL      719
REMARK  Name = ZINC000126895636
REMARK                            x       y       z     vdW  Elec       q    Type
REMARK                         _______ _______ _______ _____ _____    ______ ____
ROOT
ATOM      1  N   LIG    1       -0.264  -2.750  -1.010  0.00  0.00    -0.510 N 
ATOM      2  H   LIG    1       -0.466  -3.317  -0.200  0.00  0.00    +0.430 HD
ATOM      3  H   LIG    1        0.625  -2.290  -0.885  0.00  0.00    +0.420 HD
ENDROOT
BRANCH   1   4
ATOM      4  C   LIG    1       -0.210  -3.603  -2.204  0.00  0.00    +0.160 C 
ATOM      5  C   LIG    1        0.218  -2.766  -3.411  0.00  0.00    +0.040 C 
ATOM      6  C   LIG    1        0.274  -3.655  -4.655  0.00  0.00    +0.030 C 
ATOM      7  C   LIG    1        1.285  -4.782  -4.431  0.00  0.00    +0.020 C 
ATOM      8  C   LIG    1        0.856  -5.619  -3.225  0.00  0.00    +0.000 C 
ATOM      9  C   LIG    1        0.800  -4.730  -1.981  0.00  0.00    +0.040 C 
BRANCH   8  10
ATOM     10  C   LIG    1        1.867  -6.746  -3.001  0.00  0.00    +0.020 C 
ATOM     11  C   LIG    1        1.833  -7.705  -4.192  0.00  0.00    +0.020 C 
ENDBRANCH   8  10
ENDBRANCH   1   4
BRANCH   1  12
ATOM     12  C   LIG    1       -1.319  -1.741  -1.176  0.00  0.00    +0.170 C 
ATOM     13  C   LIG    1       -2.682  -2.433  -1.241  0.00  0.00    +0.090 C 
BRANCH  12  14
ATOM     14  C   LIG    1       -1.293  -0.775   0.010  0.00  0.00    +0.090 C 
BRANCH  14  16
ATOM     15  C   LIG    1       -0.016   1.306   0.009  0.00  0.00    +0.090 C 
ATOM     16  C   LIG    1        0.002  -0.004   0.002  0.00  0.00    -0.110 C 
ENDBRANCH  14  16
ENDBRANCH  12  14
ENDBRANCH   1  12
TORSDOF 5
ENDMDL
MODEL      720
REMARK  Name = ZINC000126896311
REMARK                            x       y       z     vdW  Elec       q    Type
REMARK                         _______ _______ _______ _____ _____    ______ ____
ROOT
ATOM      1  N   LIG    1       -0.249  -2.744  -0.950  0.00  0.00    -0.510 N 
ATOM      2  H   LIG    1       -1.044  -2.132  -1.057  0.00  0.00    +0.420 HD
ATOM      3  H   LIG    1       -0.347  -3.277  -0.099  0.00  0.00    +0.420 HD
ENDROOT
BRANCH   1   4
ATOM      4  C   LIG    1       -0.177  -3.660  -2.096  0.00  0.00    +0.160 C 
ATOM      5  C   LIG    1       -1.516  -4.384  -2.254  0.00  0.00    +0.040 C 
ATOM      6  C   LIG    1       -1.441  -5.338  -3.448  0.00  0.00    +0.040 C 
ATOM      7  C   LIG    1       -0.331  -6.364  -3.212  0.00  0.00    +0.020 C 
ATOM      8  C   LIG    1        1.008  -5.640  -3.054  0.00  0.00    +0.000 C 
ATOM      9  C   LIG    1        0.933  -4.686  -1.860  0.00  0.00    +0.040 C 
BRANCH   8  10
ATOM     10  C   LIG    1        2.118  -6.666  -2.819  0.00  0.00    +0.020 C 
ATOM     11  C   LIG    1        2.276  -7.541  -4.064  0.00  0.00    +0.020 C 
ENDBRANCH   8  10
ENDBRANCH   1   4
BRANCH   1  12
ATOM     12  C   LIG    1        0.981  -1.942  -0.886  0.00  0.00    +0.170 C 
ATOM     13  C   LIG    1        1.060  -1.032  -2.112  0.00  0.00    +0.090 C 
BRANCH  12  14
ATOM     14  C   LIG    1        0.968  -1.089   0.384  0.00  0.00    +0.090 C 
BRANCH  14  16
ATOM     15  C   LIG    1        1.949  -1.823   2.496  0.00  0.00    +0.090 C 
ATOM     16  C   LIG    1        1.013  -1.986   1.593  0.00  0.00    -0.110 C 
ENDBRANCH  14  16
ENDBRANCH  12  14
ENDBRANCH   1  12
TORSDOF 5
ENDMDL
MODEL      721
REMARK  Name = ZINC000126895832
REMARK                            x       y       z     vdW  Elec       q    Type
REMARK                         _______ _______ _______ _____ _____    ______ ____
ROOT
ATOM      1  N   LIG    1       -0.264  -2.750  -1.010  0.00  0.00    -0.510 N 
ATOM      2  H   LIG    1       -0.466  -3.317  -0.200  0.00  0.00    +0.420 HD
ATOM      3  H   LIG    1        0.625  -2.290  -0.885  0.00  0.00    +0.420 HD
ENDROOT
BRANCH   1   4
ATOM      4  C   LIG    1       -0.210  -3.603  -2.204  0.00  0.00    +0.170 C 
ATOM      5  C   LIG    1        0.218  -2.766  -3.411  0.00  0.00    +0.060 C 
ATOM      6  C   LIG    1        1.601  -2.166  -3.150  0.00  0.00    +0.010 C 
ATOM      7  C   LIG    1        2.612  -3.292  -2.927  0.00  0.00    +0.030 C 
ATOM      8  C   LIG    1        2.183  -4.130  -1.720  0.00  0.00    -0.040 C 
ATOM      9  C   LIG    1        0.800  -4.730  -1.981  0.00  0.00    +0.060 C 
BRANCH   8  10
ATOM     10  C   LIG    1        3.194  -5.256  -1.497  0.00  0.00    +0.020 C 
ATOM     11  C   LIG    1        4.549  -4.657  -1.113  0.00  0.00    +0.010 C 
ENDBRANCH   8  10
ENDBRANCH   1   4
BRANCH   1  12
ATOM     12  C   LIG    1       -1.319  -1.741  -1.176  0.00  0.00    +0.170 C 
ATOM     13  C   LIG    1       -2.682  -2.433  -1.241  0.00  0.00    +0.090 C 
BRANCH  12  14
ATOM     14  C   LIG    1       -1.293  -0.775   0.010  0.00  0.00    +0.090 C 
BRANCH  14  16
ATOM     15  C   LIG    1       -0.016   1.306   0.009  0.00  0.00    +0.090 C 
ATOM     16  C   LIG    1        0.002  -0.004   0.002  0.00  0.00    -0.110 C 
ENDBRANCH  14  16
ENDBRANCH  12  14
ENDBRANCH   1  12
TORSDOF 5
ENDMDL
MODEL      722
REMARK  Name = ZINC000126894918
REMARK                            x       y       z     vdW  Elec       q    Type
REMARK                         _______ _______ _______ _____ _____    ______ ____
ROOT
ATOM      1  N   LIG    1        1.359  -0.916   2.331  0.00  0.00    -0.510 N 
ATOM      2  H   LIG    1        2.009  -0.219   2.662  0.00  0.00    +0.420 HD
ATOM      3  H   LIG    1        1.672  -1.272   1.441  0.00  0.00    +0.420 HD
ENDROOT
BRANCH   1   4
ATOM      4  C   LIG    1        1.286  -2.017   3.301  0.00  0.00    +0.160 C 
ATOM      5  C   LIG    1        2.627  -2.751   3.341  0.00  0.00    +0.060 C 
ATOM      6  C   LIG    1        3.730  -1.775   3.759  0.00  0.00    +0.020 C 
ATOM      7  C   LIG    1        3.414  -1.213   5.146  0.00  0.00    -0.010 C 
ATOM      8  C   LIG    1        2.072  -0.479   5.106  0.00  0.00    +0.020 C 
ATOM      9  C   LIG    1        0.970  -1.454   4.688  0.00  0.00    +0.060 C 
BRANCH   7  10
ATOM     10  C   LIG    1        4.516  -0.238   5.564  0.00  0.00    +0.010 C 
ATOM     11  C   LIG    1        4.267   0.229   7.000  0.00  0.00    +0.020 C 
ENDBRANCH   7  10
ENDBRANCH   1   4
BRANCH   1  12
ATOM     12  C   LIG    1        0.029  -0.310   2.176  0.00  0.00    +0.170 C 
ATOM     13  C   LIG    1       -0.926  -1.330   1.552  0.00  0.00    +0.090 C 
BRANCH  12  14
ATOM     14  C   LIG    1        0.130   0.917   1.268  0.00  0.00    +0.100 C 
BRANCH  14  16
ATOM     15  C   LIG    1        2.016   2.466   1.324  0.00  0.00    +0.060 C 
ATOM     16  C   LIG    1        0.972   1.971   1.940  0.00  0.00    -0.090 C 
ENDBRANCH  14  16
ENDBRANCH  12  14
ENDBRANCH   1  12
TORSDOF 5
ENDMDL
MODEL      723
REMARK  Name = ZINC000126896080
REMARK                            x       y       z     vdW  Elec       q    Type
REMARK                         _______ _______ _______ _____ _____    ______ ____
ROOT
ATOM      1  N   LIG    1       -0.238  -2.749  -0.937  0.00  0.00    -0.510 N 
ATOM      2  H   LIG    1       -1.040  -2.144  -1.034  0.00  0.00    +0.420 HD
ATOM      3  H   LIG    1       -0.324  -3.288  -0.089  0.00  0.00    +0.420 HD
ENDROOT
BRANCH   1   4
ATOM      4  C   LIG    1       -0.167  -3.658  -2.089  0.00  0.00    +0.170 C 
ATOM      5  C   LIG    1       -1.499  -4.395  -2.240  0.00  0.00    +0.060 C 
ATOM      6  C   LIG    1       -1.782  -5.202  -0.971  0.00  0.00    +0.010 C 
ATOM      7  C   LIG    1       -0.659  -6.217  -0.751  0.00  0.00    +0.030 C 
ATOM      8  C   LIG    1        0.673  -5.480  -0.601  0.00  0.00    -0.040 C 
ATOM      9  C   LIG    1        0.956  -4.673  -1.870  0.00  0.00    +0.060 C 
BRANCH   8  10
ATOM     10  C   LIG    1        1.796  -6.495  -0.381  0.00  0.00    +0.020 C 
ATOM     11  C   LIG    1        1.579  -7.215   0.952  0.00  0.00    +0.010 C 
ENDBRANCH   8  10
ENDBRANCH   1   4
BRANCH   1  12
ATOM     12  C   LIG    1        0.984  -1.936  -0.879  0.00  0.00    +0.170 C 
ATOM     13  C   LIG    1        1.044  -1.017  -2.101  0.00  0.00    +0.090 C 
BRANCH  12  14
ATOM     14  C   LIG    1        0.973  -1.089   0.395  0.00  0.00    +0.090 C 
BRANCH  14  16
ATOM     15  C   LIG    1        1.979  -1.824   2.495  0.00  0.00    +0.090 C 
ATOM     16  C   LIG    1        1.037  -1.992   1.599  0.00  0.00    -0.110 C 
ENDBRANCH  14  16
ENDBRANCH  12  14
ENDBRANCH   1  12
TORSDOF 5
ENDMDL
MODEL      724
REMARK  Name = ZINC001201761732
REMARK                            x       y       z     vdW  Elec       q    Type
REMARK                         _______ _______ _______ _____ _____    ______ ____
ROOT
ATOM      1  N   LIG    1        2.212  -6.013  -3.799  0.00  0.00    -0.380 N 
ATOM      2  C   LIG    1        3.024  -6.498  -2.675  0.00  0.00    +0.310 C 
ATOM      3  H   LIG    1        1.270  -6.362  -3.709  0.00  0.00    +0.420 HD
ENDROOT
BRANCH   1   4
ATOM      4  C   LIG    1        2.792  -6.488  -5.063  0.00  0.00    +0.150 C 
ATOM      5  C   LIG    1        2.381  -7.924  -5.428  0.00  0.00    +0.050 C 
ATOM      6  C   LIG    1        2.263  -7.437  -6.881  0.00  0.00    +0.010 C 
ATOM      7  C   LIG    1        1.060  -8.018  -7.627  0.00  0.00    +0.050 C 
ATOM      8  C   LIG    1        2.013  -6.032  -6.308  0.00  0.00    +0.050 C 
ENDBRANCH   1   4
BRANCH   1   9
ATOM      9  C   LIG    1        2.192  -4.544  -3.791  0.00  0.00    +0.250 C 
BRANCH   9  10
ATOM     10  C   LIG    1        1.476  -4.051  -2.532  0.00  0.00    +0.030 C 
BRANCH  10  11
ATOM     11  C   LIG    1        1.455  -2.521  -2.524  0.00  0.00    +0.020 C 
BRANCH  11  12
ATOM     12  C   LIG    1        0.739  -2.027  -1.265  0.00  0.00    +0.020 C 
BRANCH  12  13
ATOM     13  C   LIG    1        0.718  -0.497  -1.257  0.00  0.00    +0.000 C 
BRANCH  13  15
ATOM     14  C   LIG    1       -0.019   1.526   0.010  0.00  0.00    +0.000 C 
ATOM     15  C   LIG    1        0.002  -0.004   0.002  0.00  0.00    -0.010 C 
ENDBRANCH  13  15
ENDBRANCH  12  13
ENDBRANCH  11  12
ENDBRANCH  10  11
ENDBRANCH   9  10
ENDBRANCH   1   9
TORSDOF 7
ENDMDL
MODEL      725
REMARK  Name = ZINC001201787736
REMARK                            x       y       z     vdW  Elec       q    Type
REMARK                         _______ _______ _______ _____ _____    ______ ____
ROOT
ATOM      1  N   LIG    1        1.536  -1.489   1.233  0.00  0.00    -0.380 N 
ATOM      2  H   LIG    1        1.723  -0.858   1.997  0.00  0.00    +0.420 HD
ENDROOT
BRANCH   1   3
ATOM      3  C   LIG    1        0.378  -2.329   1.565  0.00  0.00    +0.240 C 
ATOM      4  C   LIG    1        0.003  -3.183   0.352  0.00  0.00    +0.080 C 
ENDBRANCH   1   3
BRANCH   1   5
ATOM      5  C   LIG    1        1.246  -0.714   0.018  0.00  0.00    +0.300 C 
BRANCH   5   7
ATOM      6  C   LIG    1        0.410   1.485   0.669  0.00  0.00    +0.120 C 
ATOM      7  C   LIG    1        0.131   0.260   0.298  0.00  0.00    -0.190 C 
ATOM      8  C   LIG    1       -1.304  -0.174   0.151  0.00  0.00    +0.100 C 
ENDBRANCH   5   7
ENDBRANCH   1   5
BRANCH   1   9
ATOM      9  C   LIG    1        2.710  -2.341   1.002  0.00  0.00    +0.240 C 
BRANCH   9  10
ATOM     10  C   LIG    1        3.108  -3.026   2.310  0.00  0.00    +0.030 C 
BRANCH  10  11
ATOM     11  C   LIG    1        4.406  -3.808   2.102  0.00  0.00    +0.020 C 
BRANCH  11  12
ATOM     12  C   LIG    1        4.804  -4.494   3.411  0.00  0.00    +0.020 C 
BRANCH  12  13
ATOM     13  C   LIG    1        6.103  -5.276   3.202  0.00  0.00    +0.000 C 
BRANCH  13  14
ATOM     14  C   LIG    1        6.501  -5.961   4.511  0.00  0.00    -0.010 C 
ATOM     15  C   LIG    1        7.799  -6.743   4.303  0.00  0.00    +0.000 C 
ENDBRANCH  13  14
ENDBRANCH  12  13
ENDBRANCH  11  12
ENDBRANCH  10  11
ENDBRANCH   9  10
ENDBRANCH   1   9
TORSDOF 9
ENDMDL
MODEL      726
REMARK  Name = ZINC001201804384
REMARK                            x       y       z     vdW  Elec       q    Type
REMARK                         _______ _______ _______ _____ _____    ______ ____
ROOT
ATOM      1  C   LIG    1        2.284  -6.114   3.695  0.00  0.00    +0.250 C 
ENDROOT
BRANCH   1   2
ATOM      2  N   LIG    1        2.995  -6.601   4.886  0.00  0.00    -0.380 N 
ATOM      3  C   LIG    1        4.404  -6.192   4.815  0.00  0.00    +0.320 C 
ATOM      4  H   LIG    1        2.572  -6.209   5.713  0.00  0.00    +0.430 HD
BRANCH   2   5
ATOM      5  C   LIG    1        2.912  -8.066   4.940  0.00  0.00    +0.290 C 
BRANCH   5   6
ATOM      6  C   LIG    1        3.542  -8.565   6.242  0.00  0.00    -0.090 C 
ATOM      7  C   LIG    1        2.631  -9.281   7.240  0.00  0.00    +0.050 C 
ATOM      8  C   LIG    1        3.660 -10.078   6.436  0.00  0.00    +0.070 C 
ENDBRANCH   5   6
ENDBRANCH   2   5
ENDBRANCH   1   2
BRANCH   1   9
ATOM      9  C   LIG    1        2.264  -4.584   3.704  0.00  0.00    +0.030 C 
BRANCH   9  10
ATOM     10  C   LIG    1        1.524  -4.077   2.464  0.00  0.00    +0.020 C 
BRANCH  10  11
ATOM     11  C   LIG    1        1.503  -2.548   2.473  0.00  0.00    +0.020 C 
BRANCH  11  12
ATOM     12  C   LIG    1        0.763  -2.041   1.233  0.00  0.00    +0.000 C 
BRANCH  12  13
ATOM     13  C   LIG    1        0.742  -0.511   1.242  0.00  0.00    +0.000 C 
BRANCH  13  15
ATOM     14  C   LIG    1       -0.019   1.526   0.010  0.00  0.00    +0.000 C 
ATOM     15  C   LIG    1        0.002  -0.004   0.002  0.00  0.00    -0.010 C 
ENDBRANCH  13  15
ENDBRANCH  12  13
ENDBRANCH  11  12
ENDBRANCH  10  11
ENDBRANCH   9  10
ENDBRANCH   1   9
TORSDOF 9
ENDMDL
MODEL      727
REMARK  Name = ZINC001201754462
REMARK                            x       y       z     vdW  Elec       q    Type
REMARK                         _______ _______ _______ _____ _____    ______ ____
ROOT
ATOM      1  N   LIG    1        4.039  -4.159   2.305  0.00  0.00    -0.390 N 
ATOM      2  C   LIG    1        5.135  -3.208   2.540  0.00  0.00    +0.300 C 
ATOM      3  H   LIG    1        4.165  -4.602   1.407  0.00  0.00    +0.420 HD
ENDROOT
BRANCH   1   4
ATOM      4  C   LIG    1        2.757  -3.441   2.321  0.00  0.00    +0.250 C 
BRANCH   4   5
ATOM      5  C   LIG    1        2.705  -2.464   1.145  0.00  0.00    +0.030 C 
BRANCH   5   6
ATOM      6  C   LIG    1        1.370  -1.717   1.161  0.00  0.00    +0.040 C 
BRANCH   6   7
ATOM      7  C   LIG    1        1.317  -0.740  -0.015  0.00  0.00    +0.050 C 
BRANCH   7   9
ATOM      8  C   LIG    1       -0.016   1.306   0.009  0.00  0.00    +0.020 C 
ATOM      9  C   LIG    1        0.002  -0.004   0.002  0.00  0.00    -0.060 C 
ENDBRANCH   7   9
ENDBRANCH   6   7
ENDBRANCH   5   6
ENDBRANCH   4   5
ENDBRANCH   1   4
BRANCH   1  10
ATOM     10  C   LIG    1        4.042  -5.180   3.360  0.00  0.00    +0.250 C 
BRANCH  10  11
ATOM     11  C   LIG    1        5.324  -6.009   3.264  0.00  0.00    +0.030 C 
BRANCH  11  12
ATOM     12  C   LIG    1        5.327  -7.073   4.363  0.00  0.00    +0.020 C 
BRANCH  12  13
ATOM     13  C   LIG    1        6.610  -7.902   4.267  0.00  0.00    +0.020 C 
BRANCH  13  14
ATOM     14  C   LIG    1        6.613  -8.966   5.367  0.00  0.00    -0.010 C 
ATOM     15  C   LIG    1        7.895  -9.795   5.270  0.00  0.00    +0.020 C 
ENDBRANCH  13  14
ENDBRANCH  12  13
ENDBRANCH  11  12
ENDBRANCH  10  11
ENDBRANCH   1  10
TORSDOF 10
ENDMDL
MODEL      728
REMARK  Name = ZINC001201798028
REMARK                            x       y       z     vdW  Elec       q    Type
REMARK                         _______ _______ _______ _____ _____    ______ ____
ROOT
ATOM      1  N   LIG    1        2.212  -6.013  -3.799  0.00  0.00    -0.390 N 
ATOM      2  C   LIG    1        3.024  -6.498  -2.675  0.00  0.00    +0.310 C 
ATOM      3  H   LIG    1        1.270  -6.362  -3.709  0.00  0.00    +0.420 HD
ENDROOT
BRANCH   1   4
ATOM      4  C   LIG    1        2.192  -4.544  -3.791  0.00  0.00    +0.250 C 
BRANCH   4   5
ATOM      5  C   LIG    1        1.476  -4.051  -2.532  0.00  0.00    +0.030 C 
BRANCH   5   6
ATOM      6  C   LIG    1        1.455  -2.521  -2.524  0.00  0.00    +0.020 C 
BRANCH   6   7
ATOM      7  C   LIG    1        0.739  -2.027  -1.265  0.00  0.00    +0.020 C 
BRANCH   7   8
ATOM      8  C   LIG    1        0.718  -0.497  -1.257  0.00  0.00    +0.000 C 
BRANCH   8  10
ATOM      9  C   LIG    1       -0.019   1.526   0.010  0.00  0.00    +0.000 C 
ATOM     10  C   LIG    1        0.002  -0.004   0.002  0.00  0.00    -0.010 C 
ENDBRANCH   8  10
ENDBRANCH   7   8
ENDBRANCH   6   7
ENDBRANCH   5   6
ENDBRANCH   4   5
ENDBRANCH   1   4
BRANCH   1  11
ATOM     11  C   LIG    1        2.792  -6.488  -5.063  0.00  0.00    +0.250 C 
BRANCH  11  12
ATOM     12  C   LIG    1        2.699  -8.014  -5.125  0.00  0.00    +0.060 C 
BRANCH  12  13
ATOM     13  C   LIG    1        3.303  -8.508  -6.441  0.00  0.00    -0.060 C 
ATOM     14  C   LIG    1        4.548  -9.394  -6.358  0.00  0.00    +0.030 C 
ATOM     15  C   LIG    1        3.200 -10.004  -6.747  0.00  0.00    +0.030 C 
ENDBRANCH  12  13
ENDBRANCH  11  12
ENDBRANCH   1  11
TORSDOF 9
ENDMDL
MODEL      729
REMARK  Name = ZINC001201756506
REMARK                            x       y       z     vdW  Elec       q    Type
REMARK                         _______ _______ _______ _____ _____    ______ ____
ROOT
ATOM      1  N   LIG    1        1.228  -2.023   0.697  0.00  0.00    -0.380 N 
ATOM      2  H   LIG    1        0.660  -2.856   0.722  0.00  0.00    +0.420 HD
ENDROOT
BRANCH   1   3
ATOM      3  C   LIG    1        1.050  -1.271   1.947  0.00  0.00    +0.060 C 
ATOM      4  C   LIG    1        2.317  -0.465   2.242  0.00  0.00    +0.090 C 
ATOM      5  C   LIG    1        0.786  -2.246   3.096  0.00  0.00    +0.080 C 
ATOM      6  C   LIG    1       -0.139  -0.318   1.803  0.00  0.00    +0.080 C 
ENDBRANCH   1   3
BRANCH   1   7
ATOM      7  C   LIG    1        0.822  -1.186  -0.440  0.00  0.00    +0.300 C 
BRANCH   7   9
ATOM      8  C   LIG    1       -1.298   0.022  -0.535  0.00  0.00    +0.120 C 
ATOM      9  C   LIG    1       -0.682  -1.135  -0.513  0.00  0.00    -0.100 C 
ENDBRANCH   7   9
ENDBRANCH   1   7
BRANCH   1  10
ATOM     10  C   LIG    1        2.641  -2.398   0.549  0.00  0.00    +0.250 C 
BRANCH  10  11
ATOM     11  C   LIG    1        3.022  -3.394   1.646  0.00  0.00    +0.030 C 
BRANCH  11  12
ATOM     12  C   LIG    1        4.436  -3.920   1.389  0.00  0.00    +0.020 C 
BRANCH  12  13
ATOM     13  C   LIG    1        4.816  -4.917   2.486  0.00  0.00    +0.020 C 
BRANCH  13  14
ATOM     14  C   LIG    1        6.230  -5.442   2.229  0.00  0.00    -0.010 C 
ATOM     15  C   LIG    1        6.611  -6.438   3.326  0.00  0.00    +0.020 C 
ENDBRANCH  13  14
ENDBRANCH  12  13
ENDBRANCH  11  12
ENDBRANCH  10  11
ENDBRANCH   1  10
TORSDOF 8
ENDMDL
MODEL      730
REMARK  Name = ZINC001201776983
REMARK                            x       y       z     vdW  Elec       q    Type
REMARK                         _______ _______ _______ _____ _____    ______ ____
ROOT
ATOM      1  C   LIG    1        2.192  -4.544  -3.791  0.00  0.00    +0.240 C 
ENDROOT
BRANCH   1   2
ATOM      2  N   LIG    1        2.212  -6.013  -3.799  0.00  0.00    -0.380 N 
ATOM      3  C   LIG    1        3.024  -6.498  -2.675  0.00  0.00    +0.320 C 
ATOM      4  H   LIG    1        1.270  -6.362  -3.709  0.00  0.00    +0.420 HD
BRANCH   2   5
ATOM      5  C   LIG    1        2.792  -6.488  -5.063  0.00  0.00    +0.050 C 
ATOM      6  C   LIG    1        1.946  -5.983  -6.234  0.00  0.00    +0.090 C 
ATOM      7  C   LIG    1        2.813  -8.018  -5.071  0.00  0.00    +0.080 C 
ATOM      8  C   LIG    1        4.221  -5.958  -5.199  0.00  0.00    +0.080 C 
ENDBRANCH   2   5
ENDBRANCH   1   2
BRANCH   1   9
ATOM      9  C   LIG    1        1.476  -4.051  -2.532  0.00  0.00    +0.030 C 
BRANCH   9  10
ATOM     10  C   LIG    1        1.455  -2.521  -2.524  0.00  0.00    +0.020 C 
BRANCH  10  11
ATOM     11  C   LIG    1        0.739  -2.027  -1.265  0.00  0.00    +0.020 C 
BRANCH  11  12
ATOM     12  C   LIG    1        0.718  -0.497  -1.257  0.00  0.00    +0.000 C 
BRANCH  12  14
ATOM     13  C   LIG    1       -0.019   1.526   0.010  0.00  0.00    +0.000 C 
ATOM     14  C   LIG    1        0.002  -0.004   0.002  0.00  0.00    -0.010 C 
ENDBRANCH  12  14
ENDBRANCH  11  12
ENDBRANCH  10  11
ENDBRANCH   9  10
ENDBRANCH   1   9
TORSDOF 7
ENDMDL
MODEL      731
REMARK  Name = ZINC001201761310
REMARK                            x       y       z     vdW  Elec       q    Type
REMARK                         _______ _______ _______ _____ _____    ______ ____
ROOT
ATOM      1  N   LIG    1        2.212  -6.013  -3.799  0.00  0.00    -0.360 N 
ATOM      2  C   LIG    1        3.055  -6.506  -2.688  0.00  0.00    +0.260 C 
ATOM      3  C   LIG    1        3.759  -7.765  -3.254  0.00  0.00    +0.080 C 
ATOM      4  C   LIG    1        4.023  -7.344  -4.725  0.00  0.00    +0.110 C 
ATOM      5  C   LIG    1        2.787  -6.494  -5.065  0.00  0.00    -0.060 C 
ATOM      6  C   LIG    1        1.888  -6.872  -6.240  0.00  0.00    +0.110 C 
ATOM      7  C   LIG    1        2.768  -5.622  -6.319  0.00  0.00    +0.110 C 
ATOM      8  H   LIG    1        1.273  -6.367  -3.696  0.00  0.00    +0.420 HD
ENDROOT
BRANCH   1   9
ATOM      9  C   LIG    1        2.192  -4.544  -3.791  0.00  0.00    +0.250 C 
BRANCH   9  10
ATOM     10  C   LIG    1        1.476  -4.051  -2.532  0.00  0.00    +0.030 C 
BRANCH  10  11
ATOM     11  C   LIG    1        1.455  -2.521  -2.524  0.00  0.00    +0.020 C 
BRANCH  11  12
ATOM     12  C   LIG    1        0.739  -2.027  -1.265  0.00  0.00    +0.020 C 
BRANCH  12  13
ATOM     13  C   LIG    1        0.718  -0.497  -1.257  0.00  0.00    +0.000 C 
BRANCH  13  15
ATOM     14  C   LIG    1       -0.019   1.526   0.010  0.00  0.00    +0.000 C 
ATOM     15  C   LIG    1        0.002  -0.004   0.002  0.00  0.00    -0.010 C 
ENDBRANCH  13  15
ENDBRANCH  12  13
ENDBRANCH  11  12
ENDBRANCH  10  11
ENDBRANCH   9  10
ENDBRANCH   1   9
TORSDOF 6
ENDMDL
MODEL      732
REMARK  Name = ZINC001201787612
REMARK                            x       y       z     vdW  Elec       q    Type
REMARK                         _______ _______ _______ _____ _____    ______ ____
ROOT
ATOM      1  N   LIG    1       -4.243  -6.121   0.010  0.00  0.00    -0.380 N 
ATOM      2  C   LIG    1       -3.663  -6.596  -1.254  0.00  0.00    +0.310 C 
ATOM      3  H   LIG    1       -3.685  -6.454   0.782  0.00  0.00    +0.420 HD
ENDROOT
BRANCH   1   4
ATOM      4  C   LIG    1       -5.614  -6.630   0.141  0.00  0.00    +0.160 C 
ATOM      5  C   LIG    1       -5.610  -8.174   0.267  0.00  0.00    +0.050 C 
ATOM      6  C   LIG    1       -6.954  -8.463   0.981  0.00  0.00    +0.050 C 
ATOM      7  C   LIG    1       -7.098  -7.310   1.996  0.00  0.00    +0.030 C 
ATOM      8  C   LIG    1       -6.247  -6.145   1.462  0.00  0.00    +0.040 C 
ENDBRANCH   1   4
BRANCH   1   9
ATOM      9  C   LIG    1       -4.263  -4.652   0.018  0.00  0.00    +0.250 C 
BRANCH   9  10
ATOM     10  C   LIG    1       -2.827  -4.123   0.007  0.00  0.00    +0.030 C 
BRANCH  10  11
ATOM     11  C   LIG    1       -2.848  -2.593   0.015  0.00  0.00    +0.020 C 
BRANCH  11  12
ATOM     12  C   LIG    1       -1.413  -2.063   0.004  0.00  0.00    +0.020 C 
BRANCH  12  13
ATOM     13  C   LIG    1       -1.433  -0.534   0.013  0.00  0.00    +0.000 C 
BRANCH  13  15
ATOM     14  C   LIG    1       -0.019   1.526   0.010  0.00  0.00    +0.000 C 
ATOM     15  C   LIG    1        0.002  -0.004   0.002  0.00  0.00    -0.010 C 
ENDBRANCH  13  15
ENDBRANCH  12  13
ENDBRANCH  11  12
ENDBRANCH  10  11
ENDBRANCH   9  10
ENDBRANCH   1   9
TORSDOF 7
ENDMDL
MODEL      733
REMARK  Name = ZINC001201804432
REMARK                            x       y       z     vdW  Elec       q    Type
REMARK                         _______ _______ _______ _____ _____    ______ ____
ROOT
ATOM      1  C   LIG    1       -4.263  -4.652   0.018  0.00  0.00    +0.030 C 
ENDROOT
BRANCH   1   2
ATOM      2  C   LIG    1       -2.827  -4.123   0.007  0.00  0.00    +0.020 C 
BRANCH   2   3
ATOM      3  C   LIG    1       -2.848  -2.593   0.015  0.00  0.00    +0.020 C 
BRANCH   3   4
ATOM      4  C   LIG    1       -1.413  -2.063   0.004  0.00  0.00    +0.000 C 
BRANCH   4   5
ATOM      5  C   LIG    1       -1.433  -0.534   0.013  0.00  0.00    +0.000 C 
BRANCH   5   7
ATOM      6  C   LIG    1       -0.019   1.526   0.010  0.00  0.00    +0.000 C 
ATOM      7  C   LIG    1        0.002  -0.004   0.002  0.00  0.00    -0.010 C 
ENDBRANCH   5   7
ENDBRANCH   4   5
ENDBRANCH   3   4
ENDBRANCH   2   3
ENDBRANCH   1   2
BRANCH   1   8
ATOM      8  C   LIG    1       -4.242  -6.182   0.009  0.00  0.00    +0.240 C 
BRANCH   8   9
ATOM      9  N   LIG    1       -5.620  -6.691   0.020  0.00  0.00    -0.380 N 
ATOM     10  C   LIG    1       -6.270  -6.318   1.283  0.00  0.00    +0.320 C 
ATOM     11  H   LIG    1       -6.132  -6.291  -0.752  0.00  0.00    +0.420 HD
BRANCH   9  12
ATOM     12  C   LIG    1       -5.603  -8.154  -0.109  0.00  0.00    +0.160 C 
ATOM     13  C   LIG    1       -4.926  -8.542  -1.425  0.00  0.00    +0.080 C 
ATOM     14  C   LIG    1       -7.038  -8.684  -0.098  0.00  0.00    +0.090 C 
ENDBRANCH   9  12
ENDBRANCH   8   9
ENDBRANCH   1   8
TORSDOF 8
ENDMDL
MODEL      734
REMARK  Name = ZINC001201839027
REMARK                            x       y       z     vdW  Elec       q    Type
REMARK                         _______ _______ _______ _____ _____    ______ ____
ROOT
ATOM      1  C   LIG    1        2.213  -6.074  -3.800  0.00  0.00    +0.030 C 
ENDROOT
BRANCH   1   2
ATOM      2  C   LIG    1        2.192  -4.544  -3.791  0.00  0.00    +0.020 C 
BRANCH   2   3
ATOM      3  C   LIG    1        1.476  -4.051  -2.532  0.00  0.00    +0.020 C 
BRANCH   3   4
ATOM      4  C   LIG    1        1.455  -2.521  -2.524  0.00  0.00    +0.000 C 
BRANCH   4   5
ATOM      5  C   LIG    1        0.739  -2.027  -1.265  0.00  0.00    +0.000 C 
BRANCH   5   6
ATOM      6  C   LIG    1        0.718  -0.497  -1.257  0.00  0.00    +0.000 C 
BRANCH   6   8
ATOM      7  C   LIG    1       -0.019   1.526   0.010  0.00  0.00    +0.000 C 
ATOM      8  C   LIG    1        0.002  -0.004   0.002  0.00  0.00    -0.010 C 
ENDBRANCH   6   8
ENDBRANCH   5   6
ENDBRANCH   4   5
ENDBRANCH   3   4
ENDBRANCH   2   3
ENDBRANCH   1   2
BRANCH   1   9
ATOM      9  C   LIG    1        2.929  -6.567  -5.058  0.00  0.00    +0.250 C 
BRANCH   9  10
ATOM     10  N   LIG    1        2.949  -8.036  -5.066  0.00  0.00    -0.360 N 
ATOM     11  C   LIG    1        3.760  -8.521  -3.942  0.00  0.00    +0.320 C 
ATOM     12  H   LIG    1        2.007  -8.386  -4.976  0.00  0.00    +0.420 HD
BRANCH  10  13
ATOM     13  C   LIG    1        3.529  -8.511  -6.330  0.00  0.00    +0.100 C 
ATOM     14  C   LIG    1        2.736  -9.552  -7.124  0.00  0.00    +0.100 C 
ATOM     15  C   LIG    1        2.823  -8.109  -7.626  0.00  0.00    +0.090 C 
ENDBRANCH  10  13
ENDBRANCH   9  10
ENDBRANCH   1   9
TORSDOF 9
ENDMDL
MODEL      735
REMARK  Name = ZINC001201917779
REMARK                            x       y       z     vdW  Elec       q    Type
REMARK                         _______ _______ _______ _____ _____    ______ ____
ROOT
ATOM      1  N   LIG    1        2.320  -6.018  -3.735  0.00  0.00    -0.380 N 
ATOM      2  H   LIG    1        2.672  -6.359  -2.853  0.00  0.00    +0.420 HD
ENDROOT
BRANCH   1   3
ATOM      3  C   LIG    1        3.207  -6.459  -4.820  0.00  0.00    +0.250 C 
ATOM      4  C   LIG    1        4.643  -6.028  -4.511  0.00  0.00    +0.080 C 
ENDBRANCH   1   3
BRANCH   1   5
ATOM      5  C   LIG    1        2.270  -4.550  -3.709  0.00  0.00    +0.250 C 
BRANCH   5   6
ATOM      6  C   LIG    1        1.463  -4.089  -2.493  0.00  0.00    +0.030 C 
BRANCH   6   7
ATOM      7  C   LIG    1        1.526  -2.564  -2.389  0.00  0.00    +0.020 C 
BRANCH   7   8
ATOM      8  C   LIG    1        0.719  -2.103  -1.173  0.00  0.00    +0.020 C 
BRANCH   8   9
ATOM      9  C   LIG    1        0.781  -0.578  -1.068  0.00  0.00    +0.000 C 
BRANCH   9  11
ATOM     10  C   LIG    1        0.037   1.409   0.252  0.00  0.00    +0.000 C 
ATOM     11  C   LIG    1       -0.025  -0.117   0.147  0.00  0.00    -0.010 C 
ENDBRANCH   9  11
ENDBRANCH   8   9
ENDBRANCH   7   8
ENDBRANCH   6   7
ENDBRANCH   5   6
ENDBRANCH   1   5
BRANCH   1  12
ATOM     12  C   LIG    1        0.969  -6.550  -3.961  0.00  0.00    +0.280 C 
BRANCH  12  13
ATOM     13  C   LIG    1        1.000  -8.077  -3.864  0.00  0.00    -0.090 C 
ATOM     14  C   LIG    1        0.194  -8.730  -2.739  0.00  0.00    +0.050 C 
ATOM     15  C   LIG    1       -0.292  -8.831  -4.186  0.00  0.00    +0.070 C 
ENDBRANCH  12  13
ENDBRANCH   1  12
TORSDOF 9
ENDMDL
MODEL      736
REMARK  Name = ZINC001202115494
REMARK                            x       y       z     vdW  Elec       q    Type
REMARK                         _______ _______ _______ _____ _____    ______ ____
ROOT
ATOM      1  N   LIG    1        1.231  -2.025   0.689  0.00  0.00    -0.380 N 
ATOM      2  H   LIG    1        0.659  -2.855   0.719  0.00  0.00    +0.420 HD
ENDROOT
BRANCH   1   3
ATOM      3  C   LIG    1        1.047  -1.258   1.928  0.00  0.00    +0.060 C 
ATOM      4  C   LIG    1        2.315  -0.453   2.223  0.00  0.00    +0.090 C 
ATOM      5  C   LIG    1        0.773  -2.220   3.087  0.00  0.00    +0.080 C 
ATOM      6  C   LIG    1       -0.137  -0.303   1.766  0.00  0.00    +0.080 C 
ENDBRANCH   1   3
BRANCH   1   7
ATOM      7  C   LIG    1        0.837  -1.199  -0.461  0.00  0.00    +0.290 C 
BRANCH   7   9
ATOM      8  C   LIG    1       -1.277   0.016  -0.587  0.00  0.00    +0.120 C 
ATOM      9  C   LIG    1       -0.667  -1.142  -0.546  0.00  0.00    -0.100 C 
ENDBRANCH   7   9
ENDBRANCH   1   7
BRANCH   1  10
ATOM     10  C   LIG    1        2.643  -2.408   0.555  0.00  0.00    +0.240 C 
BRANCH  10  11
ATOM     11  C   LIG    1        3.011  -3.395   1.665  0.00  0.00    +0.040 C 
BRANCH  11  12
ATOM     12  C   LIG    1        4.424  -3.930   1.423  0.00  0.00    -0.060 C 
ATOM     13  C   LIG    1        4.475  -4.642   0.070  0.00  0.00    +0.030 C 
ATOM     14  C   LIG    1        4.792  -4.917   2.533  0.00  0.00    +0.040 C 
ATOM     15  C   LIG    1        5.417  -2.767   1.425  0.00  0.00    +0.020 C 
ENDBRANCH  11  12
ENDBRANCH  10  11
ENDBRANCH   1  10
TORSDOF 6
ENDMDL
MODEL      737
REMARK  Name = ZINC000675552987
REMARK                            x       y       z     vdW  Elec       q    Type
REMARK                         _______ _______ _______ _____ _____    ______ ____
ROOT
ATOM      1  N   LIG    1       -2.845  -2.561  -1.574  0.00  0.00    -0.390 N 
ATOM      2  H   LIG    1       -2.838  -3.059  -0.696  0.00  0.00    +0.420 HD
ENDROOT
BRANCH   1   3
ATOM      3  C   LIG    1       -1.720  -1.617  -1.610  0.00  0.00    +0.250 C 
BRANCH   3   4
ATOM      4  C   LIG    1       -1.758  -0.729  -0.365  0.00  0.00    +0.070 C 
BRANCH   4   6
ATOM      5  C   LIG    1       -0.825   1.526  -0.305  0.00  0.00    +0.060 C 
ATOM      6  C   LIG    1       -0.604   0.239  -0.402  0.00  0.00    -0.060 C 
ENDBRANCH   4   6
ENDBRANCH   3   4
ENDBRANCH   1   3
BRANCH   1   7
ATOM      7  C   LIG    1       -2.717  -3.518  -2.681  0.00  0.00    +0.250 C 
BRANCH   7   8
ATOM      8  C   LIG    1       -1.817  -4.678  -2.251  0.00  0.00    -0.090 C 
ATOM      9  C   LIG    1       -0.435  -4.139  -1.875  0.00  0.00    +0.040 C 
ATOM     10  C   LIG    1       -1.680  -5.672  -3.406  0.00  0.00    +0.070 C 
ATOM     11  C   LIG    1       -2.436  -5.383  -1.042  0.00  0.00    +0.060 C 
ENDBRANCH   7   8
ENDBRANCH   1   7
BRANCH   1  12
ATOM     12  C   LIG    1       -4.108  -1.822  -1.708  0.00  0.00    +0.250 C 
BRANCH  12  13
ATOM     13  C   LIG    1       -5.283  -2.779  -1.500  0.00  0.00    -0.030 C 
ATOM     14  C   LIG    1       -6.596  -2.041  -1.770  0.00  0.00    +0.070 C 
ATOM     15  C   LIG    1       -5.274  -3.293  -0.058  0.00  0.00    +0.030 C 
ENDBRANCH  12  13
ENDBRANCH   1  12
TORSDOF 7
ENDMDL
MODEL      738
REMARK  Name = ZINC000224559653
REMARK                            x       y       z     vdW  Elec       q    Type
REMARK                         _______ _______ _______ _____ _____    ______ ____
ROOT
ATOM      1  C   LIG    1        3.021  -1.537  -1.236  0.00  0.00    +0.160 C 
ENDROOT
BRANCH   1   2
ATOM      2  C   LIG    1        3.220  -2.441  -2.454  0.00  0.00    -0.010 C 
ATOM      3  C   LIG    1        3.026  -1.623  -3.733  0.00  0.00    +0.010 C 
ATOM      4  C   LIG    1        3.225  -2.527  -4.951  0.00  0.00    +0.020 C 
ATOM      5  C   LIG    1        4.639  -3.110  -4.928  0.00  0.00    +0.010 C 
ATOM      6  C   LIG    1        4.834  -3.928  -3.650  0.00  0.00    +0.020 C 
ATOM      7  C   LIG    1        4.635  -3.024  -2.431  0.00  0.00    +0.040 C 
ENDBRANCH   1   2
BRANCH   1   8
ATOM      8  N   LIG    1        1.606  -1.550  -0.843  0.00  0.00    -0.500 N 
ATOM      9  H   LIG    1        1.315  -2.499  -0.663  0.00  0.00    +0.420 HD
ATOM     10  H   LIG    1        1.484  -0.997  -0.007  0.00  0.00    +0.420 HD
BRANCH   8  11
ATOM     11  C   LIG    1        0.792  -0.985  -1.927  0.00  0.00    +0.200 C 
ATOM     12  C   LIG    1        1.229   0.457  -2.195  0.00  0.00    +0.090 C 
BRANCH  11  14
ATOM     13  C   LIG    1       -1.513  -1.750  -2.184  0.00  0.00    +0.130 C 
ATOM     14  C   LIG    1       -0.661  -1.003  -1.526  0.00  0.00    -0.090 C 
ENDBRANCH  11  14
ENDBRANCH   8  11
ENDBRANCH   1   8
BRANCH   1  15
ATOM     15  C   LIG    1        3.877  -2.050  -0.076  0.00  0.00    +0.060 C 
ATOM     16  C   LIG    1        3.734  -1.105   1.120  0.00  0.00    +0.020 C 
ENDBRANCH   1  15
TORSDOF 5
ENDMDL
MODEL      739
REMARK  Name = ZINC000224559702
REMARK                            x       y       z     vdW  Elec       q    Type
REMARK                         _______ _______ _______ _____ _____    ______ ____
ROOT
ATOM      1  C   LIG    1        3.076  -2.551   0.926  0.00  0.00    +0.160 C 
ENDROOT
BRANCH   1   2
ATOM      2  C   LIG    1        3.205  -3.669   1.963  0.00  0.00    -0.010 C 
ATOM      3  C   LIG    1        2.440  -4.903   1.480  0.00  0.00    +0.010 C 
ATOM      4  C   LIG    1        2.568  -6.021   2.517  0.00  0.00    +0.020 C 
ATOM      5  C   LIG    1        4.045  -6.376   2.704  0.00  0.00    +0.010 C 
ATOM      6  C   LIG    1        4.809  -5.142   3.186  0.00  0.00    +0.020 C 
ATOM      7  C   LIG    1        4.681  -4.024   2.149  0.00  0.00    +0.040 C 
ENDBRANCH   1   2
BRANCH   1   8
ATOM      8  N   LIG    1        1.659  -2.210   0.747  0.00  0.00    -0.500 N 
ATOM      9  H   LIG    1        1.099  -3.046   0.827  0.00  0.00    +0.420 HD
ATOM     10  H   LIG    1        1.380  -1.549   1.456  0.00  0.00    +0.420 HD
BRANCH   8  11
ATOM     11  C   LIG    1        1.462  -1.615  -0.582  0.00  0.00    +0.190 C 
ATOM     12  C   LIG    1        1.739  -2.667  -1.658  0.00  0.00    +0.090 C 
BRANCH  11  14
ATOM     13  C   LIG    1       -0.198   0.139  -0.939  0.00  0.00    +0.130 C 
ATOM     14  C   LIG    1        0.042  -1.128  -0.710  0.00  0.00    -0.100 C 
ENDBRANCH  11  14
ENDBRANCH   8  11
ENDBRANCH   1   8
BRANCH   1  15
ATOM     15  C   LIG    1        3.841  -1.317   1.408  0.00  0.00    +0.060 C 
ATOM     16  C   LIG    1        3.838  -0.253   0.309  0.00  0.00    +0.040 C 
ENDBRANCH   1  15
TORSDOF 5
ENDMDL
MODEL      740
REMARK  Name = ZINC000224559748
REMARK                            x       y       z     vdW  Elec       q    Type
REMARK                         _______ _______ _______ _____ _____    ______ ____
ROOT
ATOM      1  C   LIG    1        2.990  -2.130  -1.348  0.00  0.00    +0.160 C 
ENDROOT
BRANCH   1   2
ATOM      2  C   LIG    1        3.518  -3.100  -2.406  0.00  0.00    -0.020 C 
ATOM      3  C   LIG    1        3.508  -2.417  -3.775  0.00  0.00    +0.010 C 
ATOM      4  C   LIG    1        4.036  -3.388  -4.834  0.00  0.00    +0.020 C 
ATOM      5  C   LIG    1        5.466  -3.799  -4.480  0.00  0.00    +0.010 C 
ATOM      6  C   LIG    1        5.476  -4.483  -3.111  0.00  0.00    +0.020 C 
ATOM      7  C   LIG    1        4.949  -3.512  -2.053  0.00  0.00    +0.040 C 
ENDBRANCH   1   2
BRANCH   1   8
ATOM      8  N   LIG    1        1.579  -1.828  -1.621  0.00  0.00    -0.500 N 
ATOM      9  H   LIG    1        1.506  -1.316  -2.488  0.00  0.00    +0.420 HD
ATOM     10  H   LIG    1        1.058  -2.689  -1.694  0.00  0.00    +0.420 HD
BRANCH   8  11
ATOM     11  C   LIG    1        1.031  -1.016  -0.526  0.00  0.00    +0.200 C 
ATOM     12  C   LIG    1        1.115  -1.803   0.784  0.00  0.00    +0.090 C 
BRANCH  11  14
ATOM     13  C   LIG    1       -0.765   0.562  -1.021  0.00  0.00    +0.130 C 
ATOM     14  C   LIG    1       -0.409  -0.682  -0.820  0.00  0.00    -0.090 C 
ENDBRANCH  11  14
ENDBRANCH   8  11
ENDBRANCH   1   8
BRANCH   1  15
ATOM     15  C   LIG    1        3.806  -0.836  -1.390  0.00  0.00    +0.040 C 
ATOM     16  C   LIG    1        3.851  -0.216   0.008  0.00  0.00    +0.030 C 
ENDBRANCH   1  15
TORSDOF 5
ENDMDL
MODEL      741
REMARK  Name = ZINC000224559799
REMARK                            x       y       z     vdW  Elec       q    Type
REMARK                         _______ _______ _______ _____ _____    ______ ____
ROOT
ATOM      1  C   LIG    1        2.938  -2.353   1.082  0.00  0.00    +0.160 C 
ENDROOT
BRANCH   1   2
ATOM      2  C   LIG    1        3.071  -3.273   2.297  0.00  0.00    -0.020 C 
ATOM      3  C   LIG    1        2.118  -4.460   2.145  0.00  0.00    +0.010 C 
ATOM      4  C   LIG    1        2.251  -5.380   3.361  0.00  0.00    +0.020 C 
ATOM      5  C   LIG    1        3.690  -5.890   3.458  0.00  0.00    +0.010 C 
ATOM      6  C   LIG    1        4.644  -4.703   3.610  0.00  0.00    +0.020 C 
ATOM      7  C   LIG    1        4.510  -3.783   2.395  0.00  0.00    +0.040 C 
ENDBRANCH   1   2
BRANCH   1   8
ATOM      8  N   LIG    1        1.590  -1.768   1.056  0.00  0.00    -0.510 N 
ATOM      9  H   LIG    1        1.470  -1.239   0.205  0.00  0.00    +0.420 HD
ATOM     10  H   LIG    1        0.903  -2.506   1.093  0.00  0.00    +0.420 HD
BRANCH   8  11
ATOM     11  C   LIG    1        1.419  -0.881   2.214  0.00  0.00    +0.200 C 
ATOM     12  C   LIG    1        2.362   0.317   2.082  0.00  0.00    +0.090 C 
BRANCH  11  14
ATOM     13  C   LIG    1       -0.750  -0.656   3.314  0.00  0.00    +0.130 C 
ATOM     14  C   LIG    1       -0.007  -0.394   2.267  0.00  0.00    -0.090 C 
ENDBRANCH  11  14
ENDBRANCH   8  11
ENDBRANCH   1   8
BRANCH   1  15
ATOM     15  C   LIG    1        3.168  -3.160  -0.197  0.00  0.00    +0.050 C 
ATOM     16  C   LIG    1        3.178  -2.217  -1.401  0.00  0.00    +0.030 C 
ENDBRANCH   1  15
TORSDOF 5
ENDMDL
MODEL      742
REMARK  Name = ZINC000308222016
REMARK                            x       y       z     vdW  Elec       q    Type
REMARK                         _______ _______ _______ _____ _____    ______ ____
ROOT
ATOM      1  C   LIG    1        4.295  -5.131   3.398  0.00  0.00    +0.160 C 
ATOM      2  C   LIG    1        5.746  -5.608   3.309  0.00  0.00    +0.090 C 
ENDROOT
BRANCH   1   3
ATOM      3  N   LIG    1        4.096  -4.402   4.658  0.00  0.00    -0.510 N 
ATOM      4  H   LIG    1        3.167  -4.008   4.675  0.00  0.00    +0.420 HD
ATOM      5  H   LIG    1        4.777  -3.661   4.730  0.00  0.00    +0.430 HD
BRANCH   3   6
ATOM      6  C   LIG    1        4.256  -5.326   5.789  0.00  0.00    +0.160 C 
ATOM      7  C   LIG    1        3.129  -6.360   5.766  0.00  0.00    +0.090 C 
ATOM      8  C   LIG    1        4.202  -4.541   7.101  0.00  0.00    +0.090 C 
ENDBRANCH   3   6
ENDBRANCH   1   3
BRANCH   1   9
ATOM      9  C   LIG    1        3.990  -4.204   2.219  0.00  0.00    +0.050 C 
BRANCH   9  10
ATOM     10  C   LIG    1        2.507  -3.827   2.238  0.00  0.00    +0.010 C 
BRANCH  10  11
ATOM     11  C   LIG    1        2.201  -2.901   1.060  0.00  0.00    +0.020 C 
BRANCH  11  12
ATOM     12  C   LIG    1        0.719  -2.523   1.079  0.00  0.00    +0.010 C 
BRANCH  12  13
ATOM     13  C   LIG    1        0.413  -1.597  -0.100  0.00  0.00    +0.040 C 
BRANCH  13  15
ATOM     14  C   LIG    1       -1.402   0.036  -0.078  0.00  0.00    +0.010 C 
ATOM     15  C   LIG    1       -1.047  -1.225  -0.081  0.00  0.00    -0.060 C 
ENDBRANCH  13  15
ENDBRANCH  12  13
ENDBRANCH  11  12
ENDBRANCH  10  11
ENDBRANCH   9  10
ENDBRANCH   1   9
TORSDOF 8
ENDMDL
MODEL      743
REMARK  Name = ZINC000379373816
REMARK                            x       y       z     vdW  Elec       q    Type
REMARK                         _______ _______ _______ _____ _____    ______ ____
ROOT
ATOM      1  C   LIG    1       -4.000  -5.238  -3.533  0.00  0.00    +0.250 C 
ENDROOT
BRANCH   1   2
ATOM      2  N   LIG    1       -5.262  -5.989  -3.525  0.00  0.00    -0.510 N 
ATOM      3  H   LIG    1       -6.037  -5.347  -3.597  0.00  0.00    +0.430 HD
ATOM      4  H   LIG    1       -5.337  -6.511  -2.665  0.00  0.00    +0.430 HD
BRANCH   2   5
ATOM      5  C   LIG    1       -5.287  -6.916  -4.664  0.00  0.00    +0.170 C 
ATOM      6  C   LIG    1       -4.189  -7.967  -4.491  0.00  0.00    +0.090 C 
BRANCH   5   7
ATOM      7  C   LIG    1       -6.650  -7.609  -4.729  0.00  0.00    +0.050 C 
ATOM      8  C   LIG    1       -7.735  -6.572  -5.026  0.00  0.00    +0.030 C 
ENDBRANCH   5   7
ENDBRANCH   2   5
ENDBRANCH   1   2
BRANCH   1   9
ATOM      9  C   LIG    1       -3.974  -4.272  -2.346  0.00  0.00    +0.030 C 
BRANCH   9  10
ATOM     10  C   LIG    1       -2.659  -3.489  -2.355  0.00  0.00    +0.020 C 
BRANCH  10  11
ATOM     11  C   LIG    1       -2.633  -2.524  -1.168  0.00  0.00    +0.020 C 
BRANCH  11  12
ATOM     12  C   LIG    1       -1.319  -1.741  -1.176  0.00  0.00    +0.020 C 
BRANCH  12  13
ATOM     13  C   LIG    1       -1.293  -0.775   0.010  0.00  0.00    +0.040 C 
BRANCH  13  15
ATOM     14  C   LIG    1       -0.016   1.306   0.009  0.00  0.00    +0.010 C 
ATOM     15  C   LIG    1        0.002  -0.004   0.002  0.00  0.00    -0.060 C 
ENDBRANCH  13  15
ENDBRANCH  12  13
ENDBRANCH  11  12
ENDBRANCH  10  11
ENDBRANCH   9  10
ENDBRANCH   1   9
TORSDOF 9
ENDMDL
MODEL      744
REMARK  Name = ZINC000379373815
REMARK                            x       y       z     vdW  Elec       q    Type
REMARK                         _______ _______ _______ _____ _____    ______ ____
ROOT
ATOM      1  C   LIG    1       -4.000  -5.238  -3.533  0.00  0.00    +0.250 C 
ENDROOT
BRANCH   1   2
ATOM      2  N   LIG    1       -5.262  -5.989  -3.525  0.00  0.00    -0.510 N 
ATOM      3  H   LIG    1       -6.037  -5.347  -3.597  0.00  0.00    +0.430 HD
ATOM      4  H   LIG    1       -5.337  -6.511  -2.665  0.00  0.00    +0.430 HD
BRANCH   2   5
ATOM      5  C   LIG    1       -5.287  -6.916  -4.664  0.00  0.00    +0.170 C 
ATOM      6  C   LIG    1       -5.299  -6.119  -5.970  0.00  0.00    +0.090 C 
BRANCH   5   7
ATOM      7  C   LIG    1       -6.543  -7.786  -4.586  0.00  0.00    +0.050 C 
ATOM      8  C   LIG    1       -6.471  -8.675  -3.343  0.00  0.00    +0.030 C 
ENDBRANCH   5   7
ENDBRANCH   2   5
ENDBRANCH   1   2
BRANCH   1   9
ATOM      9  C   LIG    1       -3.974  -4.272  -2.346  0.00  0.00    +0.030 C 
BRANCH   9  10
ATOM     10  C   LIG    1       -2.659  -3.489  -2.355  0.00  0.00    +0.020 C 
BRANCH  10  11
ATOM     11  C   LIG    1       -2.633  -2.524  -1.168  0.00  0.00    +0.020 C 
BRANCH  11  12
ATOM     12  C   LIG    1       -1.319  -1.741  -1.176  0.00  0.00    +0.020 C 
BRANCH  12  13
ATOM     13  C   LIG    1       -1.293  -0.775   0.010  0.00  0.00    +0.040 C 
BRANCH  13  15
ATOM     14  C   LIG    1       -0.016   1.306   0.009  0.00  0.00    +0.010 C 
ATOM     15  C   LIG    1        0.002  -0.004   0.002  0.00  0.00    -0.060 C 
ENDBRANCH  13  15
ENDBRANCH  12  13
ENDBRANCH  11  12
ENDBRANCH  10  11
ENDBRANCH   9  10
ENDBRANCH   1   9
TORSDOF 9
ENDMDL
MODEL      745
REMARK  Name = ZINC000676042206
REMARK                            x       y       z     vdW  Elec       q    Type
REMARK                         _______ _______ _______ _____ _____    ______ ____
ROOT
ATOM      1  N   LIG    1        2.620  -2.489   1.103  0.00  0.00    -0.390 N 
ATOM      2  C   LIG    1        3.705  -1.490   1.202  0.00  0.00    +0.250 C 
ATOM      3  C   LIG    1        4.784  -2.163   2.088  0.00  0.00    +0.080 C 
ATOM      4  C   LIG    1        3.910  -2.933   3.114  0.00  0.00    +0.070 C 
ATOM      5  C   LIG    1        2.703  -3.385   2.272  0.00  0.00    +0.160 C 
ATOM      6  H   LIG    1        2.729  -3.025   0.256  0.00  0.00    +0.430 HD
ENDROOT
BRANCH   1   7
ATOM      7  C   LIG    1        1.319  -1.806   1.095  0.00  0.00    +0.250 C 
BRANCH   7   8
ATOM      8  C   LIG    1        1.197  -0.959  -0.173  0.00  0.00    +0.070 C 
BRANCH   8  10
ATOM      9  C   LIG    1       -0.193   1.044  -0.310  0.00  0.00    +0.060 C 
ATOM     10  C   LIG    1       -0.138  -0.259  -0.182  0.00  0.00    -0.060 C 
ENDBRANCH   8  10
ENDBRANCH   7   8
ENDBRANCH   1   7
BRANCH   5  11
ATOM     11  C   LIG    1        1.422  -3.283   3.102  0.00  0.00    +0.040 C 
BRANCH  11  12
ATOM     12  C   LIG    1        1.510  -4.237   4.295  0.00  0.00    +0.020 C 
BRANCH  12  13
ATOM     13  C   LIG    1        0.181  -4.230   5.053  0.00  0.00    +0.020 C 
BRANCH  13  14
ATOM     14  C   LIG    1        0.270  -5.184   6.246  0.00  0.00    -0.010 C 
ATOM     15  C   LIG    1       -1.060  -5.177   7.004  0.00  0.00    +0.020 C 
ENDBRANCH  13  14
ENDBRANCH  12  13
ENDBRANCH  11  12
ENDBRANCH   5  11
TORSDOF 7
ENDMDL
MODEL      746
REMARK  Name = ZINC000676041885
REMARK                            x       y       z     vdW  Elec       q    Type
REMARK                         _______ _______ _______ _____ _____    ______ ____
ROOT
ATOM      1  N   LIG    1       -1.607  -1.225  -1.349  0.00  0.00    -0.390 N 
ATOM      2  C   LIG    1       -0.674  -2.301  -1.745  0.00  0.00    +0.240 C 
ATOM      3  C   LIG    1       -1.431  -3.616  -1.431  0.00  0.00    +0.080 C 
ATOM      4  C   LIG    1       -2.886  -3.238  -1.811  0.00  0.00    +0.070 C 
ATOM      5  C   LIG    1       -2.981  -1.759  -1.391  0.00  0.00    +0.160 C 
ATOM      6  H   LIG    1       -1.524  -0.450  -1.991  0.00  0.00    +0.420 HD
ENDROOT
BRANCH   1   7
ATOM      7  C   LIG    1       -1.293  -0.774   0.013  0.00  0.00    +0.290 C 
BRANCH   7   9
ATOM      8  C   LIG    1        1.121  -0.756   0.381  0.00  0.00    +0.110 C 
ATOM      9  C   LIG    1        0.051  -0.092   0.020  0.00  0.00    -0.190 C 
ATOM     10  C   LIG    1        0.164   1.353  -0.390  0.00  0.00    +0.090 C 
ENDBRANCH   7   9
ENDBRANCH   1   7
BRANCH   5  11
ATOM     11  C   LIG    1       -3.811  -0.980  -2.413  0.00  0.00    +0.060 C 
BRANCH  11  12
ATOM     12  C   LIG    1       -3.973   0.467  -1.941  0.00  0.00    +0.010 C 
BRANCH  12  13
ATOM     13  C   LIG    1       -4.803   1.246  -2.963  0.00  0.00    +0.020 C 
BRANCH  13  14
ATOM     14  C   LIG    1       -4.965   2.693  -2.491  0.00  0.00    -0.010 C 
ATOM     15  C   LIG    1       -5.796   3.473  -3.513  0.00  0.00    +0.020 C 
ENDBRANCH  13  14
ENDBRANCH  12  13
ENDBRANCH  11  12
ENDBRANCH   5  11
TORSDOF 6
ENDMDL
MODEL      747
REMARK  Name = ZINC000676041868
REMARK                            x       y       z     vdW  Elec       q    Type
REMARK                         _______ _______ _______ _____ _____    ______ ____
ROOT
ATOM      1  N   LIG    1       -1.698  -1.069  -1.372  0.00  0.00    -0.390 N 
ATOM      2  C   LIG    1       -0.614  -1.889  -1.954  0.00  0.00    +0.250 C 
ATOM      3  C   LIG    1       -1.339  -2.931  -2.841  0.00  0.00    +0.080 C 
ATOM      4  C   LIG    1       -2.605  -3.234  -1.997  0.00  0.00    +0.070 C 
ATOM      5  C   LIG    1       -2.936  -1.869  -1.365  0.00  0.00    +0.160 C 
ATOM      6  H   LIG    1       -1.833  -0.239  -1.930  0.00  0.00    +0.420 HD
ENDROOT
BRANCH   1   7
ATOM      7  C   LIG    1       -1.347  -0.690   0.003  0.00  0.00    +0.300 C 
BRANCH   7   9
ATOM      8  C   LIG    1       -0.354   1.541   0.004  0.00  0.00    +0.110 C 
ATOM      9  C   LIG    1       -0.165   0.245  -0.019  0.00  0.00    -0.190 C 
ATOM     10  C   LIG    1        1.235  -0.312  -0.069  0.00  0.00    +0.100 C 
ENDBRANCH   7   9
ENDBRANCH   1   7
BRANCH   5  11
ATOM     11  C   LIG    1       -3.426  -2.065   0.070  0.00  0.00    +0.040 C 
BRANCH  11  12
ATOM     12  C   LIG    1       -4.718  -2.884   0.061  0.00  0.00    +0.020 C 
BRANCH  12  13
ATOM     13  C   LIG    1       -5.277  -2.972   1.483  0.00  0.00    +0.020 C 
BRANCH  13  14
ATOM     14  C   LIG    1       -6.569  -3.792   1.473  0.00  0.00    -0.010 C 
ATOM     15  C   LIG    1       -7.128  -3.880   2.895  0.00  0.00    +0.020 C 
ENDBRANCH  13  14
ENDBRANCH  12  13
ENDBRANCH  11  12
ENDBRANCH   5  11
TORSDOF 6
ENDMDL
MODEL      748
REMARK  Name = ZINC000676042208
REMARK                            x       y       z     vdW  Elec       q    Type
REMARK                         _______ _______ _______ _____ _____    ______ ____
ROOT
ATOM      1  N   LIG    1        2.652  -2.434   1.145  0.00  0.00    -0.390 N 
ATOM      2  C   LIG    1        3.755  -1.487   1.413  0.00  0.00    +0.240 C 
ATOM      3  C   LIG    1        4.020  -1.608   2.934  0.00  0.00    +0.080 C 
ATOM      4  C   LIG    1        3.802  -3.126   3.171  0.00  0.00    +0.070 C 
ATOM      5  C   LIG    1        2.656  -3.466   2.199  0.00  0.00    +0.160 C 
ATOM      6  H   LIG    1        2.788  -2.868   0.245  0.00  0.00    +0.420 HD
ENDROOT
BRANCH   1   7
ATOM      7  C   LIG    1        1.370  -1.717   1.161  0.00  0.00    +0.250 C 
BRANCH   7   8
ATOM      8  C   LIG    1        1.317  -0.740  -0.015  0.00  0.00    +0.070 C 
BRANCH   8  10
ATOM      9  C   LIG    1       -0.016   1.306   0.009  0.00  0.00    +0.060 C 
ATOM     10  C   LIG    1        0.002  -0.004   0.002  0.00  0.00    -0.060 C 
ENDBRANCH   8  10
ENDBRANCH   7   8
ENDBRANCH   1   7
BRANCH   5  11
ATOM     11  C   LIG    1        2.894  -4.843   1.577  0.00  0.00    +0.060 C 
BRANCH  11  12
ATOM     12  C   LIG    1        1.708  -5.210   0.681  0.00  0.00    +0.010 C 
BRANCH  12  13
ATOM     13  C   LIG    1        1.945  -6.587   0.059  0.00  0.00    +0.020 C 
BRANCH  13  14
ATOM     14  C   LIG    1        0.760  -6.953  -0.836  0.00  0.00    -0.010 C 
ATOM     15  C   LIG    1        0.997  -8.331  -1.458  0.00  0.00    +0.020 C 
ENDBRANCH  13  14
ENDBRANCH  12  13
ENDBRANCH  11  12
ENDBRANCH   5  11
TORSDOF 7
ENDMDL
MODEL      749
REMARK  Name = ZINC000168968152
REMARK                            x       y       z     vdW  Elec       q    Type
REMARK                         _______ _______ _______ _____ _____    ______ ____
ROOT
ATOM      1  N   LIG    1        2.997  -1.823   1.401  0.00  0.00    -0.510 N 
ATOM      2  H   LIG    1        3.707  -1.233   0.995  0.00  0.00    +0.430 HD
ATOM      3  H   LIG    1        2.905  -2.665   0.851  0.00  0.00    +0.430 HD
ENDROOT
BRANCH   1   4
ATOM      4  C   LIG    1        3.378  -2.175   2.775  0.00  0.00    +0.170 C 
ATOM      5  C   LIG    1        3.639  -0.897   3.575  0.00  0.00    +0.090 C 
BRANCH   4   6
ATOM      6  C   LIG    1        4.648  -3.029   2.749  0.00  0.00    +0.050 C 
BRANCH   6   7
ATOM      7  C   LIG    1        4.352  -4.361   2.058  0.00  0.00    -0.000 C 
BRANCH   7   8
ATOM      8  C   LIG    1        5.622  -5.215   2.032  0.00  0.00    +0.020 C 
BRANCH   8   9
ATOM      9  C   LIG    1        5.326  -6.547   1.340  0.00  0.00    -0.010 C 
ATOM     10  C   LIG    1        6.595  -7.401   1.314  0.00  0.00    +0.020 C 
ENDBRANCH   8   9
ENDBRANCH   7   8
ENDBRANCH   6   7
ENDBRANCH   4   6
ENDBRANCH   1   4
BRANCH   1  11
ATOM     11  C   LIG    1        1.715  -1.106   1.417  0.00  0.00    +0.250 C 
BRANCH  11  12
ATOM     12  C   LIG    1        1.317  -0.740  -0.015  0.00  0.00    +0.070 C 
BRANCH  12  14
ATOM     13  C   LIG    1       -0.016   1.306   0.009  0.00  0.00    +0.050 C 
ATOM     14  C   LIG    1        0.002  -0.004   0.002  0.00  0.00    -0.150 C 
ATOM     15  C   LIG    1       -1.293  -0.775   0.010  0.00  0.00    +0.080 C 
ENDBRANCH  12  14
ENDBRANCH  11  12
ENDBRANCH   1  11
TORSDOF 8
ENDMDL
MODEL      750
REMARK  Name = ZINC000168968239
REMARK                            x       y       z     vdW  Elec       q    Type
REMARK                         _______ _______ _______ _____ _____    ______ ____
ROOT
ATOM      1  N   LIG    1        2.997  -1.823   1.401  0.00  0.00    -0.510 N 
ATOM      2  H   LIG    1        3.707  -1.233   0.995  0.00  0.00    +0.430 HD
ATOM      3  H   LIG    1        2.905  -2.665   0.851  0.00  0.00    +0.430 HD
ENDROOT
BRANCH   1   4
ATOM      4  C   LIG    1        3.378  -2.175   2.775  0.00  0.00    +0.170 C 
ATOM      5  C   LIG    1        2.365  -3.169   3.347  0.00  0.00    +0.090 C 
BRANCH   4   6
ATOM      6  C   LIG    1        4.770  -2.810   2.771  0.00  0.00    +0.050 C 
BRANCH   6   7
ATOM      7  C   LIG    1        5.802  -1.776   2.317  0.00  0.00    -0.000 C 
BRANCH   7   8
ATOM      8  C   LIG    1        7.194  -2.411   2.313  0.00  0.00    +0.020 C 
BRANCH   8   9
ATOM      9  C   LIG    1        8.225  -1.376   1.859  0.00  0.00    -0.010 C 
ATOM     10  C   LIG    1        9.617  -2.011   1.855  0.00  0.00    +0.020 C 
ENDBRANCH   8   9
ENDBRANCH   7   8
ENDBRANCH   6   7
ENDBRANCH   4   6
ENDBRANCH   1   4
BRANCH   1  11
ATOM     11  C   LIG    1        1.715  -1.106   1.417  0.00  0.00    +0.250 C 
BRANCH  11  12
ATOM     12  C   LIG    1        1.317  -0.740  -0.015  0.00  0.00    +0.070 C 
BRANCH  12  14
ATOM     13  C   LIG    1       -0.016   1.306   0.009  0.00  0.00    +0.050 C 
ATOM     14  C   LIG    1        0.002  -0.004   0.002  0.00  0.00    -0.150 C 
ATOM     15  C   LIG    1       -1.293  -0.775   0.010  0.00  0.00    +0.080 C 
ENDBRANCH  12  14
ENDBRANCH  11  12
ENDBRANCH   1  11
TORSDOF 8
ENDMDL
MODEL      751
REMARK  Name = ZINC001167477279
REMARK                            x       y       z     vdW  Elec       q    Type
REMARK                         _______ _______ _______ _____ _____    ______ ____
ROOT
ATOM      1  N   LIG    1        2.212  -6.013  -3.799  0.00  0.00    -0.390 N 
ATOM      2  C   LIG    1        3.054  -6.505  -2.688  0.00  0.00    +0.250 C 
ATOM      3  C   LIG    1        3.756  -7.765  -3.252  0.00  0.00    +0.000 C 
ATOM      4  C   LIG    1        4.024  -7.344  -4.721  0.00  0.00    +0.070 C 
ATOM      5  C   LIG    1        5.067  -8.039  -2.512  0.00  0.00    +0.070 C 
ATOM      6  C   LIG    1        2.787  -6.494  -5.069  0.00  0.00    +0.160 C 
ATOM      7  C   LIG    1        1.760  -7.350  -5.813  0.00  0.00    +0.090 C 
ATOM      8  H   LIG    1        1.273  -6.367  -3.696  0.00  0.00    +0.420 HD
ENDROOT
BRANCH   1   9
ATOM      9  C   LIG    1        2.192  -4.544  -3.791  0.00  0.00    +0.250 C 
BRANCH   9  10
ATOM     10  C   LIG    1        1.476  -4.051  -2.532  0.00  0.00    +0.030 C 
BRANCH  10  11
ATOM     11  C   LIG    1        1.455  -2.521  -2.524  0.00  0.00    +0.020 C 
BRANCH  11  12
ATOM     12  C   LIG    1        0.739  -2.027  -1.265  0.00  0.00    +0.020 C 
BRANCH  12  13
ATOM     13  C   LIG    1        0.718  -0.497  -1.257  0.00  0.00    +0.000 C 
BRANCH  13  15
ATOM     14  C   LIG    1       -0.019   1.526   0.010  0.00  0.00    +0.000 C 
ATOM     15  C   LIG    1        0.002  -0.004   0.002  0.00  0.00    -0.010 C 
ENDBRANCH  13  15
ENDBRANCH  12  13
ENDBRANCH  11  12
ENDBRANCH  10  11
ENDBRANCH   9  10
ENDBRANCH   1   9
TORSDOF 6
ENDMDL
MODEL      752
REMARK  Name = ZINC001167477280
REMARK                            x       y       z     vdW  Elec       q    Type
REMARK                         _______ _______ _______ _____ _____    ______ ____
ROOT
ATOM      1  N   LIG    1        2.212  -6.013  -3.799  0.00  0.00    -0.390 N 
ATOM      2  C   LIG    1        3.051  -6.504  -2.691  0.00  0.00    +0.250 C 
ATOM      3  C   LIG    1        4.182  -7.349  -3.314  0.00  0.00    +0.000 C 
ATOM      4  C   LIG    1        3.594  -7.760  -4.690  0.00  0.00    +0.080 C 
ATOM      5  C   LIG    1        4.471  -8.583  -2.455  0.00  0.00    +0.070 C 
ATOM      6  C   LIG    1        2.788  -6.496  -5.072  0.00  0.00    +0.160 C 
ATOM      7  C   LIG    1        1.674  -6.853  -6.058  0.00  0.00    +0.090 C 
ATOM      8  H   LIG    1        1.273  -6.367  -3.696  0.00  0.00    +0.420 HD
ENDROOT
BRANCH   1   9
ATOM      9  C   LIG    1        2.192  -4.544  -3.791  0.00  0.00    +0.250 C 
BRANCH   9  10
ATOM     10  C   LIG    1        1.476  -4.051  -2.532  0.00  0.00    +0.030 C 
BRANCH  10  11
ATOM     11  C   LIG    1        1.455  -2.521  -2.524  0.00  0.00    +0.020 C 
BRANCH  11  12
ATOM     12  C   LIG    1        0.739  -2.027  -1.265  0.00  0.00    +0.020 C 
BRANCH  12  13
ATOM     13  C   LIG    1        0.718  -0.497  -1.257  0.00  0.00    +0.000 C 
BRANCH  13  15
ATOM     14  C   LIG    1       -0.019   1.526   0.010  0.00  0.00    +0.000 C 
ATOM     15  C   LIG    1        0.002  -0.004   0.002  0.00  0.00    -0.010 C 
ENDBRANCH  13  15
ENDBRANCH  12  13
ENDBRANCH  11  12
ENDBRANCH  10  11
ENDBRANCH   9  10
ENDBRANCH   1   9
TORSDOF 6
ENDMDL
MODEL      753
REMARK  Name = ZINC001167505525
REMARK                            x       y       z     vdW  Elec       q    Type
REMARK                         _______ _______ _______ _____ _____    ______ ____
ROOT
ATOM      1  C   LIG    1        2.213  -6.074  -3.800  0.00  0.00    +0.250 C 
ENDROOT
BRANCH   1   2
ATOM      2  N   LIG    1        2.900  -6.548  -5.008  0.00  0.00    -0.380 N 
ATOM      3  C   LIG    1        2.125  -6.163  -6.195  0.00  0.00    +0.310 C 
ATOM      4  H   LIG    1        3.819  -6.133  -5.057  0.00  0.00    +0.420 HD
BRANCH   2   5
ATOM      5  C   LIG    1        3.026  -8.010  -4.958  0.00  0.00    +0.150 C 
ATOM      6  C   LIG    1        4.161  -8.561  -5.838  0.00  0.00    +0.050 C 
ATOM      7  C   LIG    1        4.461  -9.547  -4.697  0.00  0.00    +0.060 C 
ATOM      8  C   LIG    1        3.825  -8.519  -3.747  0.00  0.00    +0.050 C 
ENDBRANCH   2   5
ENDBRANCH   1   2
BRANCH   1   9
ATOM      9  C   LIG    1        2.192  -4.544  -3.791  0.00  0.00    +0.030 C 
BRANCH   9  10
ATOM     10  C   LIG    1        1.476  -4.051  -2.532  0.00  0.00    +0.020 C 
BRANCH  10  11
ATOM     11  C   LIG    1        1.455  -2.521  -2.524  0.00  0.00    +0.020 C 
BRANCH  11  12
ATOM     12  C   LIG    1        0.739  -2.027  -1.265  0.00  0.00    +0.000 C 
BRANCH  12  13
ATOM     13  C   LIG    1        0.718  -0.497  -1.257  0.00  0.00    +0.000 C 
BRANCH  13  15
ATOM     14  C   LIG    1       -0.019   1.526   0.010  0.00  0.00    +0.000 C 
ATOM     15  C   LIG    1        0.002  -0.004   0.002  0.00  0.00    -0.010 C 
ENDBRANCH  13  15
ENDBRANCH  12  13
ENDBRANCH  11  12
ENDBRANCH  10  11
ENDBRANCH   9  10
ENDBRANCH   1   9
TORSDOF 8
ENDMDL
MODEL      754
REMARK  Name = ZINC000379888266
REMARK                            x       y       z     vdW  Elec       q    Type
REMARK                         _______ _______ _______ _____ _____    ______ ____
ROOT
ATOM      1  N   LIG    1        2.783  -3.301  -0.060  0.00  0.00    -0.510 N 
ATOM      2  H   LIG    1        2.631  -2.729  -0.877  0.00  0.00    +0.420 HD
ATOM      3  H   LIG    1        2.075  -4.019  -0.017  0.00  0.00    +0.420 HD
ENDROOT
BRANCH   1   4
ATOM      4  C   LIG    1        2.705  -2.464   1.145  0.00  0.00    +0.170 C 
ATOM      5  C   LIG    1        2.810  -3.349   2.388  0.00  0.00    +0.090 C 
BRANCH   4   6
ATOM      6  C   LIG    1        1.370  -1.717   1.161  0.00  0.00    +0.070 C 
BRANCH   6   7
ATOM      7  C   LIG    1        1.317  -0.740  -0.015  0.00  0.00    +0.040 C 
BRANCH   7   9
ATOM      8  C   LIG    1       -0.016   1.306   0.009  0.00  0.00    +0.050 C 
ATOM      9  C   LIG    1        0.002  -0.004   0.002  0.00  0.00    -0.060 C 
ENDBRANCH   7   9
ENDBRANCH   6   7
ENDBRANCH   4   6
ENDBRANCH   1   4
BRANCH   1  10
ATOM     10  C   LIG    1        4.110  -3.925  -0.138  0.00  0.00    +0.260 C 
BRANCH  10  11
ATOM     11  C   LIG    1        4.191  -4.796  -1.393  0.00  0.00    -0.080 C 
ATOM     12  C   LIG    1        3.962  -3.929  -2.632  0.00  0.00    +0.050 C 
ATOM     13  C   LIG    1        3.119  -5.886  -1.327  0.00  0.00    +0.040 C 
BRANCH  11  14
ATOM     14  C   LIG    1        5.574  -5.446  -1.474  0.00  0.00    +0.080 C 
BRANCH  14  15
ATOM     15  C   LIG    1        5.654  -6.305  -2.710  0.00  0.00    -0.060 C 
ATOM     16  C   LIG    1        6.614  -6.112  -3.580  0.00  0.00    +0.030 C 
ENDBRANCH  14  15
ENDBRANCH  11  14
ENDBRANCH  10  11
ENDBRANCH   1  10
TORSDOF 8
ENDMDL
MODEL      755
REMARK  Name = ZINC000379880265
REMARK                            x       y       z     vdW  Elec       q    Type
REMARK                         _______ _______ _______ _____ _____    ______ ____
ROOT
ATOM      1  N   LIG    1       -2.658  -3.451  -2.307  0.00  0.00    -0.510 N 
ATOM      2  H   LIG    1       -1.884  -4.093  -2.235  0.00  0.00    +0.420 HD
ATOM      3  H   LIG    1       -2.583  -2.929  -3.167  0.00  0.00    +0.430 HD
ENDROOT
BRANCH   1   4
ATOM      4  C   LIG    1       -2.633  -2.524  -1.168  0.00  0.00    +0.260 C 
BRANCH   4   5
ATOM      5  C   LIG    1       -1.319  -1.741  -1.176  0.00  0.00    -0.080 C 
ATOM      6  C   LIG    1       -0.144  -2.715  -1.067  0.00  0.00    +0.040 C 
ATOM      7  C   LIG    1       -1.205  -0.949  -2.481  0.00  0.00    +0.050 C 
BRANCH   5   8
ATOM      8  C   LIG    1       -1.293  -0.775   0.010  0.00  0.00    +0.080 C 
BRANCH   8  10
ATOM      9  C   LIG    1       -0.016   1.306   0.009  0.00  0.00    +0.030 C 
ATOM     10  C   LIG    1        0.002  -0.004   0.002  0.00  0.00    -0.060 C 
ENDBRANCH   8  10
ENDBRANCH   5   8
ENDBRANCH   4   5
ENDBRANCH   1   4
BRANCH   1  11
ATOM     11  C   LIG    1       -3.920  -4.202  -2.299  0.00  0.00    +0.250 C 
BRANCH  11  12
ATOM     12  C   LIG    1       -3.946  -5.168  -3.486  0.00  0.00    -0.030 C 
ATOM     13  C   LIG    1       -2.848  -6.219  -3.313  0.00  0.00    +0.040 C 
BRANCH  12  14
ATOM     14  C   LIG    1       -5.309  -5.860  -3.550  0.00  0.00    +0.040 C 
BRANCH  14  15
ATOM     15  C   LIG    1       -5.380  -6.731  -4.806  0.00  0.00    +0.010 C 
ATOM     16  C   LIG    1       -6.743  -7.423  -4.871  0.00  0.00    +0.020 C 
ENDBRANCH  14  15
ENDBRANCH  12  14
ENDBRANCH  11  12
ENDBRANCH   1  11
TORSDOF 8
ENDMDL
MODEL      756
REMARK  Name = ZINC000379888270
REMARK                            x       y       z     vdW  Elec       q    Type
REMARK                         _______ _______ _______ _____ _____    ______ ____
ROOT
ATOM      1  N   LIG    1        3.800  -1.514   1.380  0.00  0.00    -0.510 N 
ATOM      2  H   LIG    1        3.720  -1.132   2.310  0.00  0.00    +0.420 HD
ATOM      3  H   LIG    1        3.749  -0.767   0.704  0.00  0.00    +0.420 HD
ENDROOT
BRANCH   1   4
ATOM      4  C   LIG    1        2.705  -2.464   1.145  0.00  0.00    +0.160 C 
ATOM      5  C   LIG    1        2.708  -3.528   2.244  0.00  0.00    +0.090 C 
BRANCH   4   6
ATOM      6  C   LIG    1        1.370  -1.717   1.161  0.00  0.00    +0.070 C 
BRANCH   6   7
ATOM      7  C   LIG    1        1.317  -0.740  -0.015  0.00  0.00    +0.050 C 
BRANCH   7   9
ATOM      8  C   LIG    1       -0.016   1.306   0.009  0.00  0.00    +0.040 C 
ATOM      9  C   LIG    1        0.002  -0.004   0.002  0.00  0.00    -0.050 C 
ENDBRANCH   7   9
ENDBRANCH   6   7
ENDBRANCH   4   6
ENDBRANCH   1   4
BRANCH   1  10
ATOM     10  C   LIG    1        5.088  -2.208   1.245  0.00  0.00    +0.260 C 
BRANCH  10  11
ATOM     11  C   LIG    1        6.229  -1.219   1.490  0.00  0.00    -0.080 C 
ATOM     12  C   LIG    1        6.107  -0.639   2.901  0.00  0.00    +0.050 C 
ATOM     13  C   LIG    1        6.151  -0.086   0.465  0.00  0.00    +0.040 C 
BRANCH  11  14
ATOM     14  C   LIG    1        7.570  -1.942   1.350  0.00  0.00    +0.080 C 
BRANCH  14  15
ATOM     15  C   LIG    1        8.694  -0.967   1.591  0.00  0.00    -0.060 C 
ATOM     16  C   LIG    1        9.600  -1.224   2.502  0.00  0.00    +0.030 C 
ENDBRANCH  14  15
ENDBRANCH  11  14
ENDBRANCH  10  11
ENDBRANCH   1  10
TORSDOF 8
ENDMDL
MODEL      757
REMARK  Name = ZINC000379880264
REMARK                            x       y       z     vdW  Elec       q    Type
REMARK                         _______ _______ _______ _____ _____    ______ ____
ROOT
ATOM      1  N   LIG    1       -2.658  -3.451  -2.307  0.00  0.00    -0.510 N 
ATOM      2  H   LIG    1       -1.884  -4.093  -2.235  0.00  0.00    +0.430 HD
ATOM      3  H   LIG    1       -2.583  -2.929  -3.167  0.00  0.00    +0.420 HD
ENDROOT
BRANCH   1   4
ATOM      4  C   LIG    1       -2.633  -2.524  -1.168  0.00  0.00    +0.260 C 
BRANCH   4   5
ATOM      5  C   LIG    1       -1.319  -1.741  -1.176  0.00  0.00    -0.080 C 
ATOM      6  C   LIG    1       -0.144  -2.715  -1.067  0.00  0.00    +0.040 C 
ATOM      7  C   LIG    1       -1.205  -0.949  -2.481  0.00  0.00    +0.050 C 
BRANCH   5   8
ATOM      8  C   LIG    1       -1.293  -0.775   0.010  0.00  0.00    +0.080 C 
BRANCH   8  10
ATOM      9  C   LIG    1       -0.016   1.306   0.009  0.00  0.00    +0.030 C 
ATOM     10  C   LIG    1        0.002  -0.004   0.002  0.00  0.00    -0.060 C 
ENDBRANCH   8  10
ENDBRANCH   5   8
ENDBRANCH   4   5
ENDBRANCH   1   4
BRANCH   1  11
ATOM     11  C   LIG    1       -3.920  -4.202  -2.299  0.00  0.00    +0.250 C 
BRANCH  11  12
ATOM     12  C   LIG    1       -3.946  -5.168  -3.486  0.00  0.00    -0.030 C 
ATOM     13  C   LIG    1       -3.958  -4.371  -4.792  0.00  0.00    +0.040 C 
BRANCH  12  14
ATOM     14  C   LIG    1       -5.202  -6.038  -3.408  0.00  0.00    +0.040 C 
BRANCH  14  15
ATOM     15  C   LIG    1       -5.167  -7.086  -4.522  0.00  0.00    +0.010 C 
ATOM     16  C   LIG    1       -6.423  -7.956  -4.444  0.00  0.00    +0.020 C 
ENDBRANCH  14  15
ENDBRANCH  12  14
ENDBRANCH  11  12
ENDBRANCH   1  11
TORSDOF 8
ENDMDL
MODEL      758
REMARK  Name = ZINC000380114211
REMARK                            x       y       z     vdW  Elec       q    Type
REMARK                         _______ _______ _______ _____ _____    ______ ____
ROOT
ATOM      1  N   LIG    1        2.749  -3.427   2.372  0.00  0.00    -0.510 N 
ATOM      2  H   LIG    1        1.951  -4.034   2.263  0.00  0.00    +0.420 HD
ATOM      3  H   LIG    1        2.743  -3.024   3.297  0.00  0.00    +0.420 HD
ENDROOT
BRANCH   1   4
ATOM      4  C   LIG    1        2.688  -2.354   1.370  0.00  0.00    +0.250 C 
BRANCH   4   5
ATOM      5  C   LIG    1        1.345  -1.629   1.481  0.00  0.00    -0.080 C 
ATOM      6  C   LIG    1        0.208  -2.622   1.234  0.00  0.00    +0.040 C 
ATOM      7  C   LIG    1        1.204  -1.028   2.881  0.00  0.00    +0.050 C 
BRANCH   5   8
ATOM      8  C   LIG    1        1.282  -0.511   0.438  0.00  0.00    +0.080 C 
BRANCH   8  10
ATOM      9  C   LIG    1       -0.072   1.501   0.719  0.00  0.00    +0.030 C 
ATOM     10  C   LIG    1       -0.041   0.203   0.547  0.00  0.00    -0.060 C 
ENDBRANCH   8  10
ENDBRANCH   5   8
ENDBRANCH   4   5
ENDBRANCH   1   4
BRANCH   1  11
ATOM     11  C   LIG    1        3.983  -4.202   2.184  0.00  0.00    +0.160 C 
BRANCH  11  12
ATOM     12  C   LIG    1        5.193  -3.316   2.490  0.00  0.00    +0.030 C 
ATOM     13  C   LIG    1        6.479  -4.078   2.162  0.00  0.00    +0.060 C 
ENDBRANCH  11  12
BRANCH  11  14
ATOM     14  C   LIG    1        3.979  -5.404   3.130  0.00  0.00    +0.060 C 
BRANCH  14  15
ATOM     15  C   LIG    1        2.842  -6.353   2.744  0.00  0.00    -0.010 C 
ATOM     16  C   LIG    1        2.838  -7.555   3.691  0.00  0.00    +0.040 C 
ENDBRANCH  14  15
ENDBRANCH  11  14
ENDBRANCH   1  11
TORSDOF 8
ENDMDL
MODEL      759
REMARK  Name = ZINC000778960057
REMARK                            x       y       z     vdW  Elec       q    Type
REMARK                         _______ _______ _______ _____ _____    ______ ____
ROOT
ATOM      1  N   LIG    1        2.212  -6.013  -3.799  0.00  0.00    -0.380 N 
ATOM      2  C   LIG    1        2.999  -6.489  -4.948  0.00  0.00    +0.270 C 
ATOM      3  C   LIG    1        3.215  -7.997  -4.800  0.00  0.00    +0.130 C 
ATOM      4  C   LIG    1        1.901  -8.669  -4.512  0.00  0.00    -0.020 C 
ATOM      5  C   LIG    1        0.849  -8.010  -4.118  0.00  0.00    +0.030 C 
ATOM      6  F   LIG    1       -0.288  -8.698  -3.877  0.00  0.00    -0.120 F 
ATOM      7  C   LIG    1        0.840  -6.522  -3.915  0.00  0.00    +0.320 C 
ATOM      8  H   LIG    1        2.627  -6.350  -2.943  0.00  0.00    +0.430 HD
ENDROOT
BRANCH   1   9
ATOM      9  C   LIG    1        2.192  -4.544  -3.791  0.00  0.00    +0.260 C 
BRANCH   9  10
ATOM     10  C   LIG    1        1.476  -4.051  -2.532  0.00  0.00    +0.030 C 
BRANCH  10  11
ATOM     11  C   LIG    1        1.455  -2.521  -2.524  0.00  0.00    +0.020 C 
BRANCH  11  12
ATOM     12  C   LIG    1        0.739  -2.027  -1.265  0.00  0.00    +0.020 C 
BRANCH  12  13
ATOM     13  C   LIG    1        0.718  -0.497  -1.257  0.00  0.00    +0.000 C 
BRANCH  13  15
ATOM     14  C   LIG    1       -0.019   1.526   0.010  0.00  0.00    +0.000 C 
ATOM     15  C   LIG    1        0.002  -0.004   0.002  0.00  0.00    -0.010 C 
ENDBRANCH  13  15
ENDBRANCH  12  13
ENDBRANCH  11  12
ENDBRANCH  10  11
ENDBRANCH   9  10
ENDBRANCH   1   9
TORSDOF 6
ENDMDL
MODEL      760
REMARK  Name = ZINC000380114205
REMARK                            x       y       z     vdW  Elec       q    Type
REMARK                         _______ _______ _______ _____ _____    ______ ____
ROOT
ATOM      1  N   LIG    1        2.926  -3.127   2.058  0.00  0.00    -0.510 N 
ATOM      2  H   LIG    1        2.087  -3.688   2.076  0.00  0.00    +0.420 HD
ATOM      3  H   LIG    1        2.955  -2.539   2.878  0.00  0.00    +0.420 HD
ENDROOT
BRANCH   1   4
ATOM      4  C   LIG    1        2.928  -2.287   0.853  0.00  0.00    +0.260 C 
BRANCH   4   5
ATOM      5  C   LIG    1        1.768  -1.290   0.924  0.00  0.00    -0.080 C 
ATOM      6  C   LIG    1        0.445  -2.053   1.013  0.00  0.00    +0.040 C 
ATOM      7  C   LIG    1        1.931  -0.406   2.163  0.00  0.00    +0.050 C 
BRANCH   5   8
ATOM      8  C   LIG    1        1.770  -0.415  -0.331  0.00  0.00    +0.080 C 
BRANCH   8  10
ATOM      9  C   LIG    1        0.860   1.850  -0.379  0.00  0.00    +0.030 C 
ATOM     10  C   LIG    1        0.628   0.566  -0.261  0.00  0.00    -0.060 C 
ENDBRANCH   8  10
ENDBRANCH   5   8
ENDBRANCH   4   5
ENDBRANCH   1   4
BRANCH   1  11
ATOM     11  C   LIG    1        4.103  -4.005   2.044  0.00  0.00    +0.160 C 
BRANCH  11  12
ATOM     12  C   LIG    1        3.993  -4.987   0.875  0.00  0.00    +0.030 C 
ATOM     13  C   LIG    1        5.272  -5.822   0.788  0.00  0.00    +0.060 C 
ENDBRANCH  11  12
BRANCH  11  14
ATOM     14  C   LIG    1        4.174  -4.785   3.359  0.00  0.00    +0.060 C 
BRANCH  14  15
ATOM     15  C   LIG    1        4.409  -3.812   4.516  0.00  0.00    -0.010 C 
ATOM     16  C   LIG    1        4.479  -4.591   5.831  0.00  0.00    +0.040 C 
ENDBRANCH  14  15
ENDBRANCH  11  14
ENDBRANCH   1  11
TORSDOF 8
ENDMDL
MODEL      761
REMARK  Name = ZINC000381906492
REMARK                            x       y       z     vdW  Elec       q    Type
REMARK                         _______ _______ _______ _____ _____    ______ ____
ROOT
ATOM      1  N   LIG    1       -2.658  -3.451  -2.307  0.00  0.00    -0.510 N 
ATOM      2  H   LIG    1       -1.884  -4.093  -2.235  0.00  0.00    +0.420 HD
ATOM      3  H   LIG    1       -2.583  -2.929  -3.167  0.00  0.00    +0.420 HD
ENDROOT
BRANCH   1   4
ATOM      4  C   LIG    1       -3.920  -4.202  -2.299  0.00  0.00    +0.160 C 
ATOM      5  C   LIG    1       -3.978  -5.090  -1.054  0.00  0.00    +0.090 C 
BRANCH   4   6
ATOM      6  C   LIG    1       -4.001  -5.076  -3.553  0.00  0.00    +0.060 C 
BRANCH   6   7
ATOM      7  C   LIG    1       -4.070  -4.184  -4.793  0.00  0.00    -0.050 C 
ATOM      8  C   LIG    1       -5.373  -3.382  -4.774  0.00  0.00    +0.030 C 
ATOM      9  C   LIG    1       -4.025  -5.054  -6.051  0.00  0.00    +0.050 C 
ENDBRANCH   6   7
ENDBRANCH   4   6
ENDBRANCH   1   4
BRANCH   1  10
ATOM     10  C   LIG    1       -2.633  -2.524  -1.168  0.00  0.00    +0.260 C 
BRANCH  10  11
ATOM     11  C   LIG    1       -1.319  -1.741  -1.176  0.00  0.00    -0.080 C 
ATOM     12  C   LIG    1       -0.144  -2.715  -1.067  0.00  0.00    +0.040 C 
ATOM     13  C   LIG    1       -1.205  -0.949  -2.481  0.00  0.00    +0.050 C 
BRANCH  11  14
ATOM     14  C   LIG    1       -1.293  -0.775   0.010  0.00  0.00    +0.080 C 
BRANCH  14  16
ATOM     15  C   LIG    1       -0.016   1.306   0.009  0.00  0.00    +0.030 C 
ATOM     16  C   LIG    1        0.002  -0.004   0.002  0.00  0.00    -0.060 C 
ENDBRANCH  14  16
ENDBRANCH  11  14
ENDBRANCH  10  11
ENDBRANCH   1  10
TORSDOF 7
ENDMDL
MODEL      762
REMARK  Name = ZINC000381906496
REMARK                            x       y       z     vdW  Elec       q    Type
REMARK                         _______ _______ _______ _____ _____    ______ ____
ROOT
ATOM      1  N   LIG    1       -2.605  -3.502  -2.328  0.00  0.00    -0.510 N 
ATOM      2  H   LIG    1       -1.900  -4.214  -2.211  0.00  0.00    +0.430 HD
ATOM      3  H   LIG    1       -2.429  -2.991  -3.180  0.00  0.00    +0.420 HD
ENDROOT
BRANCH   1   4
ATOM      4  C   LIG    1       -3.930  -4.132  -2.398  0.00  0.00    +0.160 C 
ATOM      5  C   LIG    1       -4.984  -3.069  -2.713  0.00  0.00    +0.080 C 
BRANCH   4   6
ATOM      6  C   LIG    1       -3.931  -5.194  -3.501  0.00  0.00    +0.040 C 
BRANCH   6   7
ATOM      7  C   LIG    1       -5.261  -5.951  -3.478  0.00  0.00    -0.010 C 
ATOM      8  C   LIG    1       -5.375  -6.743  -2.173  0.00  0.00    +0.020 C 
ATOM      9  C   LIG    1       -5.320  -6.913  -4.665  0.00  0.00    +0.040 C 
ENDBRANCH   6   7
ENDBRANCH   4   6
ENDBRANCH   1   4
BRANCH   1  10
ATOM     10  C   LIG    1       -2.562  -2.579  -1.186  0.00  0.00    +0.250 C 
BRANCH  10  11
ATOM     11  C   LIG    1       -1.182  -1.922  -1.112  0.00  0.00    -0.080 C 
ATOM     12  C   LIG    1       -0.113  -3.002  -0.935  0.00  0.00    +0.040 C 
ATOM     13  C   LIG    1       -0.916  -1.148  -2.404  0.00  0.00    +0.050 C 
BRANCH  11  14
ATOM     14  C   LIG    1       -1.138  -0.961   0.077  0.00  0.00    +0.080 C 
BRANCH  14  16
ATOM     15  C   LIG    1        0.326   0.992   0.161  0.00  0.00    +0.030 C 
ATOM     16  C   LIG    1        0.221  -0.314   0.150  0.00  0.00    -0.060 C 
ENDBRANCH  14  16
ENDBRANCH  11  14
ENDBRANCH  10  11
ENDBRANCH   1  10
TORSDOF 7
ENDMDL
MODEL      763
REMARK  Name = ZINC000382097619
REMARK                            x       y       z     vdW  Elec       q    Type
REMARK                         _______ _______ _______ _____ _____    ______ ____
ROOT
ATOM      1  N   LIG    1        2.755  -3.402   2.274  0.00  0.00    -0.510 N 
ATOM      2  H   LIG    1        1.998  -4.065   2.195  0.00  0.00    +0.420 HD
ATOM      3  H   LIG    1        2.666  -2.892   3.140  0.00  0.00    +0.420 HD
ENDROOT
BRANCH   1   4
ATOM      4  C   LIG    1        4.037  -4.120   2.258  0.00  0.00    +0.170 C 
ATOM      5  C   LIG    1        5.178  -3.130   2.503  0.00  0.00    +0.080 C 
BRANCH   4   6
ATOM      6  C   LIG    1        4.040  -5.184   3.357  0.00  0.00    -0.080 C 
ATOM      7  C   LIG    1        3.849  -4.511   4.718  0.00  0.00    +0.050 C 
ATOM      8  C   LIG    1        5.375  -5.931   3.340  0.00  0.00    +0.070 C 
ATOM      9  C   LIG    1        2.899  -6.173   3.112  0.00  0.00    +0.040 C 
ENDBRANCH   4   6
ENDBRANCH   1   4
BRANCH   1  10
ATOM     10  C   LIG    1        2.705  -2.464   1.145  0.00  0.00    +0.260 C 
BRANCH  10  11
ATOM     11  C   LIG    1        1.370  -1.717   1.161  0.00  0.00    -0.080 C 
ATOM     12  C   LIG    1        0.222  -2.722   1.041  0.00  0.00    +0.040 C 
ATOM     13  C   LIG    1        1.235  -0.943   2.474  0.00  0.00    +0.050 C 
BRANCH  11  14
ATOM     14  C   LIG    1        1.317  -0.740  -0.015  0.00  0.00    +0.080 C 
BRANCH  14  16
ATOM     15  C   LIG    1       -0.016   1.306   0.009  0.00  0.00    +0.030 C 
ATOM     16  C   LIG    1        0.002  -0.004   0.002  0.00  0.00    -0.060 C 
ENDBRANCH  14  16
ENDBRANCH  11  14
ENDBRANCH  10  11
ENDBRANCH   1  10
TORSDOF 6
ENDMDL
MODEL      764
REMARK  Name = ZINC000382107629
REMARK                            x       y       z     vdW  Elec       q    Type
REMARK                         _______ _______ _______ _____ _____    ______ ____
ROOT
ATOM      1  N   LIG    1        1.934  -3.378   0.213  0.00  0.00    -0.470 N 
ATOM      2  H   LIG    1        1.738  -2.698  -0.506  0.00  0.00    +0.420 HD
ATOM      3  H   LIG    1        1.066  -3.709   0.608  0.00  0.00    +0.420 HD
ENDROOT
BRANCH   1   4
ATOM      4  C   LIG    1        2.670  -4.508  -0.368  0.00  0.00    -0.050 C 
ATOM      5  C   LIG    1        2.213  -5.918   0.010  0.00  0.00    +0.110 C 
ATOM      6  C   LIG    1        1.937  -5.376  -1.393  0.00  0.00    +0.100 C 
BRANCH   4   7
ATOM      7  C   LIG    1        4.169  -4.283  -0.576  0.00  0.00    +0.030 C 
ATOM      8  C   LIG    1        4.379  -3.214  -1.650  0.00  0.00    +0.030 C 
ATOM      9  C   LIG    1        4.824  -5.591  -1.023  0.00  0.00    +0.060 C 
ENDBRANCH   4   7
ENDBRANCH   1   4
BRANCH   1  10
ATOM     10  C   LIG    1        2.745  -2.756   1.268  0.00  0.00    +0.170 C 
BRANCH  10  11
ATOM     11  C   LIG    1        2.622  -3.572   2.556  0.00  0.00    +0.050 C 
ATOM     12  C   LIG    1        3.564  -4.776   2.489  0.00  0.00    +0.030 C 
ENDBRANCH  10  11
BRANCH  10  13
ATOM     13  C   LIG    1        2.250  -1.330   1.518  0.00  0.00    +0.060 C 
BRANCH  13  14
ATOM     14  C   LIG    1        2.489  -0.480   0.269  0.00  0.00    +0.040 C 
BRANCH  14  16
ATOM     15  C   LIG    1        2.811   1.939   0.342  0.00  0.00    +0.050 C 
ATOM     16  C   LIG    1        2.001   0.924   0.515  0.00  0.00    -0.060 C 
ENDBRANCH  14  16
ENDBRANCH  13  14
ENDBRANCH  10  13
ENDBRANCH   1  10
TORSDOF 7
ENDMDL
MODEL      765
REMARK  Name = ZINC000382107630
REMARK                            x       y       z     vdW  Elec       q    Type
REMARK                         _______ _______ _______ _____ _____    ______ ____
ROOT
ATOM      1  N   LIG    1        3.536  -1.770   1.128  0.00  0.00    -0.470 N 
ATOM      2  H   LIG    1        3.315  -1.351   2.019  0.00  0.00    +0.420 HD
ATOM      3  H   LIG    1        3.423  -1.083   0.397  0.00  0.00    +0.420 HD
ENDROOT
BRANCH   1   4
ATOM      4  C   LIG    1        4.926  -2.246   1.142  0.00  0.00    -0.050 C 
ATOM      5  C   LIG    1        5.844  -1.779   0.010  0.00  0.00    +0.110 C 
ATOM      6  C   LIG    1        6.022  -1.217   1.422  0.00  0.00    +0.100 C 
BRANCH   4   7
ATOM      7  C   LIG    1        5.132  -3.663   1.680  0.00  0.00    +0.030 C 
ATOM      8  C   LIG    1        4.811  -3.692   3.176  0.00  0.00    +0.040 C 
ATOM      9  C   LIG    1        6.587  -4.084   1.462  0.00  0.00    +0.060 C 
ENDBRANCH   4   7
ENDBRANCH   1   4
BRANCH   1  10
ATOM     10  C   LIG    1        2.633  -2.901   0.880  0.00  0.00    +0.160 C 
BRANCH  10  11
ATOM     11  C   LIG    1        1.230  -2.554   1.382  0.00  0.00    +0.050 C 
ATOM     12  C   LIG    1        1.250  -2.430   2.907  0.00  0.00    +0.030 C 
ENDBRANCH  10  11
BRANCH  10  13
ATOM     13  C   LIG    1        2.580  -3.192  -0.621  0.00  0.00    +0.060 C 
BRANCH  13  14
ATOM     14  C   LIG    1        3.928  -3.751  -1.080  0.00  0.00    +0.040 C 
BRANCH  14  16
ATOM     15  C   LIG    1        4.694  -3.652  -3.396  0.00  0.00    +0.030 C 
ATOM     16  C   LIG    1        3.841  -4.144  -2.532  0.00  0.00    -0.060 C 
ENDBRANCH  14  16
ENDBRANCH  13  14
ENDBRANCH  10  13
ENDBRANCH   1  10
TORSDOF 7
ENDMDL
MODEL      766
REMARK  Name = ZINC000382097618
REMARK                            x       y       z     vdW  Elec       q    Type
REMARK                         _______ _______ _______ _____ _____    ______ ____
ROOT
ATOM      1  N   LIG    1        2.755  -3.402   2.274  0.00  0.00    -0.510 N 
ATOM      2  H   LIG    1        1.998  -4.065   2.195  0.00  0.00    +0.420 HD
ATOM      3  H   LIG    1        2.666  -2.892   3.140  0.00  0.00    +0.420 HD
ENDROOT
BRANCH   1   4
ATOM      4  C   LIG    1        4.037  -4.120   2.258  0.00  0.00    +0.170 C 
ATOM      5  C   LIG    1        4.118  -4.991   1.003  0.00  0.00    +0.080 C 
BRANCH   4   6
ATOM      6  C   LIG    1        4.142  -5.005   3.501  0.00  0.00    -0.080 C 
ATOM      7  C   LIG    1        4.061  -4.133   4.756  0.00  0.00    +0.040 C 
ATOM      8  C   LIG    1        5.477  -5.752   3.485  0.00  0.00    +0.070 C 
ATOM      9  C   LIG    1        2.993  -6.015   3.507  0.00  0.00    +0.050 C 
ENDBRANCH   4   6
ENDBRANCH   1   4
BRANCH   1  10
ATOM     10  C   LIG    1        2.705  -2.464   1.145  0.00  0.00    +0.260 C 
BRANCH  10  11
ATOM     11  C   LIG    1        1.370  -1.717   1.161  0.00  0.00    -0.080 C 
ATOM     12  C   LIG    1        0.222  -2.722   1.041  0.00  0.00    +0.040 C 
ATOM     13  C   LIG    1        1.235  -0.943   2.474  0.00  0.00    +0.050 C 
BRANCH  11  14
ATOM     14  C   LIG    1        1.317  -0.740  -0.015  0.00  0.00    +0.080 C 
BRANCH  14  16
ATOM     15  C   LIG    1       -0.016   1.306   0.009  0.00  0.00    +0.030 C 
ATOM     16  C   LIG    1        0.002  -0.004   0.002  0.00  0.00    -0.060 C 
ENDBRANCH  14  16
ENDBRANCH  11  14
ENDBRANCH  10  11
ENDBRANCH   1  10
TORSDOF 6
ENDMDL
MODEL      767
REMARK  Name = ZINC000785661750
REMARK                            x       y       z     vdW  Elec       q    Type
REMARK                         _______ _______ _______ _____ _____    ______ ____
ROOT
ATOM      1  N   LIG    1        3.456  -4.989   3.540  0.00  0.00    -0.380 N 
ATOM      2  H   LIG    1        2.964  -4.778   4.396  0.00  0.00    +0.420 HD
ENDROOT
BRANCH   1   3
ATOM      3  C   LIG    1        3.139  -6.360   3.119  0.00  0.00    +0.160 C 
ATOM      4  C   LIG    1        3.407  -7.324   4.276  0.00  0.00    +0.080 C 
ATOM      5  C   LIG    1        4.016  -6.742   1.924  0.00  0.00    +0.080 C 
ENDBRANCH   1   3
BRANCH   1   6
ATOM      6  C   LIG    1        3.042  -4.046   2.492  0.00  0.00    +0.240 C 
BRANCH   6   7
ATOM      7  C   LIG    1        1.522  -4.104   2.326  0.00  0.00    +0.030 C 
BRANCH   7   8
ATOM      8  C   LIG    1        1.077  -3.029   1.332  0.00  0.00    +0.020 C 
BRANCH   8   9
ATOM      9  C   LIG    1       -0.442  -3.086   1.165  0.00  0.00    +0.020 C 
BRANCH   9  10
ATOM     10  C   LIG    1       -0.887  -2.012   0.171  0.00  0.00    +0.050 C 
BRANCH  10  12
ATOM     11  C   LIG    1       -3.107  -0.995   0.211  0.00  0.00    +0.020 C 
ATOM     12  C   LIG    1       -2.384  -2.068   0.007  0.00  0.00    -0.060 C 
ENDBRANCH  10  12
ENDBRANCH   9  10
ENDBRANCH   8   9
ENDBRANCH   7   8
ENDBRANCH   6   7
ENDBRANCH   1   6
BRANCH   1  13
ATOM     13  C   LIG    1        4.903  -4.868   3.765  0.00  0.00    +0.290 C 
BRANCH  13  14
ATOM     14  C   LIG    1        5.295  -5.689   4.966  0.00  0.00    -0.080 C 
ATOM     15  C   LIG    1        6.263  -6.566   4.871  0.00  0.00    +0.110 C 
ENDBRANCH  13  14
ENDBRANCH   1  13
TORSDOF 9
ENDMDL
MODEL      768
REMARK  Name = ZINC000379563522
REMARK                            x       y       z     vdW  Elec       q    Type
REMARK                         _______ _______ _______ _____ _____    ______ ____
ROOT
ATOM      1  N   LIG    1        2.107  -5.990  -3.866  0.00  0.00    -0.510 N 
ATOM      2  H   LIG    1        1.140  -6.275  -3.889  0.00  0.00    +0.430 HD
ATOM      3  H   LIG    1        2.551  -6.371  -3.044  0.00  0.00    +0.430 HD
ENDROOT
BRANCH   1   4
ATOM      4  C   LIG    1        2.185  -4.524  -3.830  0.00  0.00    +0.250 C 
BRANCH   4   5
ATOM      5  C   LIG    1        1.363  -3.998  -2.652  0.00  0.00    +0.030 C 
BRANCH   5   6
ATOM      6  C   LIG    1        1.443  -2.471  -2.615  0.00  0.00    +0.020 C 
BRANCH   6   7
ATOM      7  C   LIG    1        0.621  -1.945  -1.437  0.00  0.00    +0.020 C 
BRANCH   7   8
ATOM      8  C   LIG    1        0.702  -0.418  -1.399  0.00  0.00    +0.000 C 
BRANCH   8  10
ATOM      9  C   LIG    1       -0.040   1.635  -0.183  0.00  0.00    +0.000 C 
ATOM     10  C   LIG    1       -0.121   0.108  -0.221  0.00  0.00    -0.010 C 
ENDBRANCH   8  10
ENDBRANCH   7   8
ENDBRANCH   6   7
ENDBRANCH   5   6
ENDBRANCH   4   5
ENDBRANCH   1   4
BRANCH   1  11
ATOM     11  C   LIG    1        2.792  -6.487  -5.067  0.00  0.00    +0.200 C 
BRANCH  11  12
ATOM     12  C   LIG    1        4.288  -6.182  -4.964  0.00  0.00    -0.080 C 
ATOM     13  C   LIG    1        5.250  -7.371  -4.906  0.00  0.00    +0.050 C 
ATOM     14  C   LIG    1        5.162  -6.518  -6.173  0.00  0.00    +0.070 C 
ENDBRANCH  11  12
BRANCH  11  15
ATOM     15  C   LIG    1        2.587  -7.999  -5.181  0.00  0.00    +0.050 C 
ATOM     16  C   LIG    1        1.104  -8.297  -5.407  0.00  0.00    +0.030 C 
ENDBRANCH  11  15
ENDBRANCH   1  11
TORSDOF 9
ENDMDL
MODEL      769
REMARK  Name = ZINC000379563523
REMARK                            x       y       z     vdW  Elec       q    Type
REMARK                         _______ _______ _______ _____ _____    ______ ____
ROOT
ATOM      1  N   LIG    1        2.469  -5.824  -4.037  0.00  0.00    -0.510 N 
ATOM      2  H   LIG    1        1.470  -5.960  -3.992  0.00  0.00    +0.430 HD
ATOM      3  H   LIG    1        2.898  -6.207  -3.208  0.00  0.00    +0.430 HD
ENDROOT
BRANCH   1   4
ATOM      4  C   LIG    1        2.765  -4.388  -4.124  0.00  0.00    +0.250 C 
BRANCH   4   5
ATOM      5  C   LIG    1        2.324  -3.697  -2.832  0.00  0.00    +0.030 C 
BRANCH   5   6
ATOM      6  C   LIG    1        2.632  -2.202  -2.922  0.00  0.00    +0.020 C 
BRANCH   6   7
ATOM      7  C   LIG    1        2.191  -1.511  -1.631  0.00  0.00    +0.020 C 
BRANCH   7   8
ATOM      8  C   LIG    1        2.500  -0.015  -1.721  0.00  0.00    +0.000 C 
BRANCH   8  10
ATOM      9  C   LIG    1        2.367   2.172  -0.520  0.00  0.00    +0.000 C 
ATOM     10  C   LIG    1        2.058   0.676  -0.429  0.00  0.00    -0.010 C 
ENDBRANCH   8  10
ENDBRANCH   7   8
ENDBRANCH   6   7
ENDBRANCH   5   6
ENDBRANCH   4   5
ENDBRANCH   1   4
BRANCH   1  11
ATOM     11  C   LIG    1        3.003  -6.507  -5.223  0.00  0.00    +0.200 C 
BRANCH  11  12
ATOM     12  C   LIG    1        2.258  -6.022  -6.469  0.00  0.00    -0.080 C 
ATOM     13  C   LIG    1        3.040  -5.174  -7.474  0.00  0.00    +0.050 C 
ATOM     14  C   LIG    1        2.670  -6.619  -7.816  0.00  0.00    +0.070 C 
ENDBRANCH  11  12
BRANCH  11  15
ATOM     15  C   LIG    1        2.812  -8.018  -5.071  0.00  0.00    +0.050 C 
ATOM     16  C   LIG    1        3.658  -8.523  -3.900  0.00  0.00    +0.020 C 
ENDBRANCH  11  15
ENDBRANCH   1  11
TORSDOF 9
ENDMDL
MODEL      770
REMARK  Name = ZINC000379573008
REMARK                            x       y       z     vdW  Elec       q    Type
REMARK                         _______ _______ _______ _____ _____    ______ ____
ROOT
ATOM      1  N   LIG    1       -3.651  -1.505  -1.250  0.00  0.00    -0.500 N 
ATOM      2  H   LIG    1       -3.721  -1.123  -2.181  0.00  0.00    +0.420 HD
ATOM      3  H   LIG    1       -3.413  -0.769  -0.602  0.00  0.00    +0.420 HD
ENDROOT
BRANCH   1   4
ATOM      4  C   LIG    1       -4.939  -2.099  -0.865  0.00  0.00    +0.150 C 
ATOM      5  C   LIG    1       -5.733  -2.668  -2.053  0.00  0.00    +0.060 C 
ATOM      6  C   LIG    1       -6.993  -2.092  -1.384  0.00  0.00    +0.070 C 
ATOM      7  C   LIG    1       -6.068  -1.068  -0.702  0.00  0.00    -0.080 C 
ATOM      8  C   LIG    1       -5.856   0.207  -1.521  0.00  0.00    +0.060 C 
ATOM      9  C   LIG    1       -6.436  -0.785   0.756  0.00  0.00    +0.060 C 
ENDBRANCH   1   4
BRANCH   1  10
ATOM     10  C   LIG    1       -2.607  -2.539  -1.222  0.00  0.00    +0.170 C 
BRANCH  10  11
ATOM     11  C   LIG    1       -2.540  -3.158   0.176  0.00  0.00    +0.050 C 
ATOM     12  C   LIG    1       -2.148  -2.082   1.191  0.00  0.00    +0.020 C 
ENDBRANCH  10  11
BRANCH  10  13
ATOM     13  C   LIG    1       -2.939  -3.627  -2.245  0.00  0.00    +0.060 C 
BRANCH  13  14
ATOM     14  C   LIG    1       -2.885  -3.034  -3.655  0.00  0.00    +0.050 C 
BRANCH  14  16
ATOM     15  C   LIG    1       -4.180  -3.919  -5.526  0.00  0.00    +0.040 C 
ATOM     16  C   LIG    1       -3.211  -4.105  -4.663  0.00  0.00    -0.050 C 
ENDBRANCH  14  16
ENDBRANCH  13  14
ENDBRANCH  10  13
ENDBRANCH   1  10
TORSDOF 6
ENDMDL
MODEL      771
REMARK  Name = ZINC000379573007
REMARK                            x       y       z     vdW  Elec       q    Type
REMARK                         _______ _______ _______ _____ _____    ______ ____
ROOT
ATOM      1  N   LIG    1       -2.854  -3.238   0.084  0.00  0.00    -0.490 N 
ATOM      2  H   LIG    1       -2.774  -2.718   0.945  0.00  0.00    +0.430 HD
ATOM      3  H   LIG    1       -2.134  -3.945   0.050  0.00  0.00    +0.420 HD
ENDROOT
BRANCH   1   4
ATOM      4  C   LIG    1       -4.174  -3.881   0.020  0.00  0.00    +0.130 C 
ATOM      5  C   LIG    1       -4.184  -5.189  -0.788  0.00  0.00    +0.070 C 
ATOM      6  C   LIG    1       -3.836  -5.911   0.524  0.00  0.00    +0.040 C 
ATOM      7  C   LIG    1       -4.504  -4.732   1.257  0.00  0.00    -0.070 C 
ATOM      8  C   LIG    1       -6.005  -4.925   1.487  0.00  0.00    +0.080 C 
ATOM      9  C   LIG    1       -3.760  -4.295   2.520  0.00  0.00    +0.050 C 
ENDBRANCH   1   4
BRANCH   1  10
ATOM     10  C   LIG    1       -2.699  -2.325  -1.057  0.00  0.00    +0.170 C 
BRANCH  10  11
ATOM     11  C   LIG    1       -3.816  -1.280  -1.029  0.00  0.00    +0.050 C 
ATOM     12  C   LIG    1       -3.705  -0.449   0.250  0.00  0.00    +0.030 C 
ENDBRANCH  10  11
BRANCH  10  13
ATOM     13  C   LIG    1       -2.776  -3.121  -2.361  0.00  0.00    +0.060 C 
BRANCH  13  14
ATOM     14  C   LIG    1       -1.587  -4.080  -2.445  0.00  0.00    +0.030 C 
BRANCH  14  16
ATOM     15  C   LIG    1       -0.650  -4.860  -4.560  0.00  0.00    +0.050 C 
ATOM     16  C   LIG    1       -1.663  -4.863  -3.730  0.00  0.00    -0.070 C 
ENDBRANCH  14  16
ENDBRANCH  13  14
ENDBRANCH  10  13
ENDBRANCH   1  10
TORSDOF 6
ENDMDL
MODEL      772
REMARK  Name = ZINC000379573012
REMARK                            x       y       z     vdW  Elec       q    Type
REMARK                         _______ _______ _______ _____ _____    ______ ____
ROOT
ATOM      1  N   LIG    1       -2.509  -3.409   0.057  0.00  0.00    -0.500 N 
ATOM      2  H   LIG    1       -2.337  -2.841   0.873  0.00  0.00    +0.420 HD
ATOM      3  H   LIG    1       -1.716  -4.011  -0.108  0.00  0.00    +0.420 HD
ENDROOT
BRANCH   1   4
ATOM      4  C   LIG    1       -3.708  -4.229   0.274  0.00  0.00    +0.150 C 
ATOM      5  C   LIG    1       -4.779  -3.538   1.136  0.00  0.00    +0.050 C 
ATOM      6  C   LIG    1       -5.006  -4.902   1.808  0.00  0.00    +0.070 C 
ATOM      7  C   LIG    1       -3.558  -5.249   1.415  0.00  0.00    -0.090 C 
ATOM      8  C   LIG    1       -2.524  -4.844   2.467  0.00  0.00    +0.060 C 
ATOM      9  C   LIG    1       -3.384  -6.690   0.932  0.00  0.00    +0.060 C 
ENDBRANCH   1   4
BRANCH   1  10
ATOM     10  C   LIG    1       -2.715  -2.540  -1.109  0.00  0.00    +0.170 C 
BRANCH  10  11
ATOM     11  C   LIG    1       -2.818  -3.397  -2.373  0.00  0.00    +0.040 C 
ATOM     12  C   LIG    1       -3.116  -2.499  -3.575  0.00  0.00    +0.060 C 
ENDBRANCH  10  11
BRANCH  10  13
ATOM     13  C   LIG    1       -1.534  -1.576  -1.242  0.00  0.00    +0.070 C 
BRANCH  13  14
ATOM     14  C   LIG    1       -1.505  -0.635  -0.036  0.00  0.00    +0.040 C 
BRANCH  14  16
ATOM     15  C   LIG    1       -0.543   1.607  -0.116  0.00  0.00    +0.050 C 
ATOM     16  C   LIG    1       -0.342   0.314  -0.167  0.00  0.00    -0.070 C 
ENDBRANCH  14  16
ENDBRANCH  13  14
ENDBRANCH  10  13
ENDBRANCH   1  10
TORSDOF 6
ENDMDL
MODEL      773
REMARK  Name = ZINC000379573009
REMARK                            x       y       z     vdW  Elec       q    Type
REMARK                         _______ _______ _______ _____ _____    ______ ____
ROOT
ATOM      1  N   LIG    1       -3.889  -1.631  -1.244  0.00  0.00    -0.490 N 
ATOM      2  H   LIG    1       -4.024  -1.193  -2.143  0.00  0.00    +0.430 HD
ATOM      3  H   LIG    1       -3.703  -0.922  -0.550  0.00  0.00    +0.420 HD
ENDROOT
BRANCH   1   4
ATOM      4  C   LIG    1       -5.102  -2.372  -0.873  0.00  0.00    +0.130 C 
ATOM      5  C   LIG    1       -5.305  -2.501   0.646  0.00  0.00    +0.070 C 
ATOM      6  C   LIG    1       -6.075  -1.171   0.576  0.00  0.00    +0.040 C 
ATOM      7  C   LIG    1       -6.379  -1.516  -0.894  0.00  0.00    -0.080 C 
ATOM      8  C   LIG    1       -7.661  -2.329  -1.081  0.00  0.00    +0.080 C 
ATOM      9  C   LIG    1       -6.295  -0.312  -1.835  0.00  0.00    +0.050 C 
ENDBRANCH   1   4
BRANCH   1  10
ATOM     10  C   LIG    1       -2.751  -2.557  -1.316  0.00  0.00    +0.170 C 
BRANCH  10  11
ATOM     11  C   LIG    1       -2.969  -3.543  -2.465  0.00  0.00    +0.040 C 
ATOM     12  C   LIG    1       -1.859  -4.596  -2.451  0.00  0.00    +0.060 C 
ENDBRANCH  10  11
BRANCH  10  13
ATOM     13  C   LIG    1       -1.464  -1.766  -1.560  0.00  0.00    +0.070 C 
BRANCH  13  14
ATOM     14  C   LIG    1       -1.181  -0.870  -0.352  0.00  0.00    +0.050 C 
BRANCH  14  16
ATOM     15  C   LIG    1        0.079   1.216  -0.507  0.00  0.00    +0.040 C 
ATOM     16  C   LIG    1        0.087  -0.091  -0.592  0.00  0.00    -0.050 C 
ENDBRANCH  14  16
ENDBRANCH  13  14
ENDBRANCH  10  13
ENDBRANCH   1  10
TORSDOF 6
ENDMDL
MODEL      774
REMARK  Name = ZINC000379575060
REMARK                            x       y       z     vdW  Elec       q    Type
REMARK                         _______ _______ _______ _____ _____    ______ ____
ROOT
ATOM      1  C   LIG    1        4.145  -5.166   3.480  0.00  0.00    +0.250 C 
ENDROOT
BRANCH   1   2
ATOM      2  N   LIG    1        5.427  -5.883   3.464  0.00  0.00    -0.510 N 
ATOM      3  H   LIG    1        6.184  -5.220   3.543  0.00  0.00    +0.430 HD
ATOM      4  H   LIG    1        5.516  -6.393   2.598  0.00  0.00    +0.430 HD
BRANCH   2   5
ATOM      5  C   LIG    1        5.477  -6.821   4.593  0.00  0.00    +0.170 C 
ATOM      6  C   LIG    1        4.408  -7.900   4.408  0.00  0.00    +0.080 C 
BRANCH   5   7
ATOM      7  C   LIG    1        6.858  -7.477   4.650  0.00  0.00    -0.020 C 
ATOM      8  C   LIG    1        6.911  -8.454   5.826  0.00  0.00    +0.070 C 
ATOM      9  C   LIG    1        7.928  -6.399   4.835  0.00  0.00    +0.040 C 
ENDBRANCH   5   7
ENDBRANCH   2   5
ENDBRANCH   1   2
BRANCH   1  10
ATOM     10  C   LIG    1        4.093  -4.188   2.304  0.00  0.00    +0.030 C 
BRANCH  10  11
ATOM     11  C   LIG    1        2.757  -3.441   2.321  0.00  0.00    +0.020 C 
BRANCH  11  12
ATOM     12  C   LIG    1        2.705  -2.464   1.145  0.00  0.00    +0.020 C 
BRANCH  12  13
ATOM     13  C   LIG    1        1.370  -1.717   1.161  0.00  0.00    +0.020 C 
BRANCH  13  14
ATOM     14  C   LIG    1        1.317  -0.740  -0.015  0.00  0.00    +0.040 C 
BRANCH  14  16
ATOM     15  C   LIG    1       -0.016   1.306   0.009  0.00  0.00    +0.010 C 
ATOM     16  C   LIG    1        0.002  -0.004   0.002  0.00  0.00    -0.060 C 
ENDBRANCH  14  16
ENDBRANCH  13  14
ENDBRANCH  12  13
ENDBRANCH  11  12
ENDBRANCH  10  11
ENDBRANCH   1  10
TORSDOF 9
ENDMDL
MODEL      775
REMARK  Name = ZINC000379575059
REMARK                            x       y       z     vdW  Elec       q    Type
REMARK                         _______ _______ _______ _____ _____    ______ ____
ROOT
ATOM      1  C   LIG    1        4.145  -5.166   3.480  0.00  0.00    +0.250 C 
ENDROOT
BRANCH   1   2
ATOM      2  N   LIG    1        5.427  -5.883   3.464  0.00  0.00    -0.510 N 
ATOM      3  H   LIG    1        6.184  -5.220   3.543  0.00  0.00    +0.420 HD
ATOM      4  H   LIG    1        5.516  -6.393   2.598  0.00  0.00    +0.430 HD
BRANCH   2   5
ATOM      5  C   LIG    1        5.477  -6.821   4.593  0.00  0.00    +0.170 C 
ATOM      6  C   LIG    1        5.468  -6.038   5.907  0.00  0.00    +0.090 C 
BRANCH   5   7
ATOM      7  C   LIG    1        6.756  -7.656   4.505  0.00  0.00    -0.020 C 
ATOM      8  C   LIG    1        6.750  -8.717   5.608  0.00  0.00    +0.070 C 
ATOM      9  C   LIG    1        7.973  -6.745   4.682  0.00  0.00    +0.040 C 
ENDBRANCH   5   7
ENDBRANCH   2   5
ENDBRANCH   1   2
BRANCH   1  10
ATOM     10  C   LIG    1        4.093  -4.188   2.304  0.00  0.00    +0.030 C 
BRANCH  10  11
ATOM     11  C   LIG    1        2.757  -3.441   2.321  0.00  0.00    +0.020 C 
BRANCH  11  12
ATOM     12  C   LIG    1        2.705  -2.464   1.145  0.00  0.00    +0.020 C 
BRANCH  12  13
ATOM     13  C   LIG    1        1.370  -1.717   1.161  0.00  0.00    +0.020 C 
BRANCH  13  14
ATOM     14  C   LIG    1        1.317  -0.740  -0.015  0.00  0.00    +0.040 C 
BRANCH  14  16
ATOM     15  C   LIG    1       -0.016   1.306   0.009  0.00  0.00    +0.010 C 
ATOM     16  C   LIG    1        0.002  -0.004   0.002  0.00  0.00    -0.060 C 
ENDBRANCH  14  16
ENDBRANCH  13  14
ENDBRANCH  12  13
ENDBRANCH  11  12
ENDBRANCH  10  11
ENDBRANCH   1  10
TORSDOF 9
ENDMDL
MODEL      776
REMARK  Name = ZINC000379594186
REMARK                            x       y       z     vdW  Elec       q    Type
REMARK                         _______ _______ _______ _____ _____    ______ ____
ROOT
ATOM      1  N   LIG    1        0.180  -2.733   1.131  0.00  0.00    -0.510 N 
ATOM      2  H   LIG    1        0.265  -3.423   0.400  0.00  0.00    +0.420 HD
ATOM      3  H   LIG    1       -0.618  -2.143   0.946  0.00  0.00    +0.420 HD
ENDROOT
BRANCH   1   4
ATOM      4  C   LIG    1        0.001  -3.409   2.423  0.00  0.00    +0.160 C 
ATOM      5  C   LIG    1       -0.271  -2.367   3.510  0.00  0.00    +0.090 C 
BRANCH   4   6
ATOM      6  C   LIG    1       -1.182  -4.375   2.334  0.00  0.00    +0.050 C 
BRANCH   6   7
ATOM      7  C   LIG    1       -0.857  -5.488   1.337  0.00  0.00    -0.000 C 
BRANCH   7   8
ATOM      8  C   LIG    1       -2.040  -6.454   1.248  0.00  0.00    +0.020 C 
BRANCH   8   9
ATOM      9  C   LIG    1       -1.716  -7.568   0.250  0.00  0.00    -0.010 C 
ATOM     10  C   LIG    1       -2.899  -8.534   0.161  0.00  0.00    +0.020 C 
ENDBRANCH   8   9
ENDBRANCH   7   8
ENDBRANCH   6   7
ENDBRANCH   4   6
ENDBRANCH   1   4
BRANCH   1  11
ATOM     11  C   LIG    1        1.397  -1.911   1.172  0.00  0.00    +0.170 C 
BRANCH  11  12
ATOM     12  C   LIG    1        2.621  -2.819   1.313  0.00  0.00    +0.030 C 
ATOM     13  C   LIG    1        3.874  -1.960   1.498  0.00  0.00    +0.060 C 
ENDBRANCH  11  12
BRANCH  11  14
ATOM     14  C   LIG    1        1.509  -1.101  -0.121  0.00  0.00    +0.100 C 
BRANCH  14  16
ATOM     15  C   LIG    1        0.612   1.157  -0.362  0.00  0.00    +0.090 C 
ATOM     16  C   LIG    1        0.368  -0.119  -0.199  0.00  0.00    -0.110 C 
ENDBRANCH  14  16
ENDBRANCH  11  14
ENDBRANCH   1  11
TORSDOF 9
ENDMDL
MODEL      777
REMARK  Name = ZINC000379594180
REMARK                            x       y       z     vdW  Elec       q    Type
REMARK                         _______ _______ _______ _____ _____    ______ ____
ROOT
ATOM      1  N   LIG    1        0.316  -2.713   0.643  0.00  0.00    -0.500 N 
ATOM      2  H   LIG    1        0.513  -3.128  -0.256  0.00  0.00    +0.420 HD
ATOM      3  H   LIG    1       -0.551  -2.200   0.594  0.00  0.00    +0.420 HD
ENDROOT
BRANCH   1   4
ATOM      4  C   LIG    1        0.203  -3.772   1.655  0.00  0.00    +0.160 C 
ATOM      5  C   LIG    1        1.514  -4.556   1.722  0.00  0.00    +0.090 C 
BRANCH   4   6
ATOM      6  C   LIG    1       -0.939  -4.718   1.278  0.00  0.00    +0.050 C 
BRANCH   6   7
ATOM      7  C   LIG    1       -2.268  -3.962   1.332  0.00  0.00    -0.000 C 
BRANCH   7   8
ATOM      8  C   LIG    1       -3.409  -4.909   0.954  0.00  0.00    +0.020 C 
BRANCH   8   9
ATOM      9  C   LIG    1       -4.738  -4.152   1.008  0.00  0.00    -0.010 C 
ATOM     10  C   LIG    1       -5.879  -5.099   0.630  0.00  0.00    +0.020 C 
ENDBRANCH   8   9
ENDBRANCH   7   8
ENDBRANCH   6   7
ENDBRANCH   4   6
ENDBRANCH   1   4
BRANCH   1  11
ATOM     11  C   LIG    1        1.406  -1.800   1.010  0.00  0.00    +0.160 C 
BRANCH  11  12
ATOM     12  C   LIG    1        1.663  -0.824  -0.140  0.00  0.00    +0.050 C 
ATOM     13  C   LIG    1        2.247  -1.584  -1.333  0.00  0.00    +0.030 C 
ENDBRANCH  11  12
BRANCH  11  14
ATOM     14  C   LIG    1        1.014  -1.017   2.265  0.00  0.00    +0.090 C 
BRANCH  14  16
ATOM     15  C   LIG    1        2.305  -1.364   4.308  0.00  0.00    +0.080 C 
ATOM     16  C   LIG    1        1.385  -1.812   3.490  0.00  0.00    -0.100 C 
ENDBRANCH  14  16
ENDBRANCH  11  14
ENDBRANCH   1  11
TORSDOF 9
ENDMDL
MODEL      778
REMARK  Name = ZINC000379594179
REMARK                            x       y       z     vdW  Elec       q    Type
REMARK                         _______ _______ _______ _____ _____    ______ ____
ROOT
ATOM      1  N   LIG    1        1.480  -0.841   2.404  0.00  0.00    -0.510 N 
ATOM      2  H   LIG    1        0.718  -0.180   2.430  0.00  0.00    +0.420 HD
ATOM      3  H   LIG    1        2.353  -0.345   2.309  0.00  0.00    +0.420 HD
ENDROOT
BRANCH   1   4
ATOM      4  C   LIG    1        1.493  -1.622   3.648  0.00  0.00    +0.160 C 
ATOM      5  C   LIG    1        0.122  -2.269   3.858  0.00  0.00    +0.090 C 
BRANCH   4   6
ATOM      6  C   LIG    1        1.807  -0.699   4.827  0.00  0.00    +0.050 C 
BRANCH   6   7
ATOM      7  C   LIG    1        3.228  -0.149   4.679  0.00  0.00    +0.010 C 
BRANCH   7   8
ATOM      8  C   LIG    1        3.542   0.774   5.857  0.00  0.00    +0.020 C 
BRANCH   8   9
ATOM      9  C   LIG    1        4.962   1.324   5.710  0.00  0.00    -0.010 C 
ATOM     10  C   LIG    1        5.277   2.247   6.888  0.00  0.00    +0.020 C 
ENDBRANCH   8   9
ENDBRANCH   7   8
ENDBRANCH   6   7
ENDBRANCH   4   6
ENDBRANCH   1   4
BRANCH   1  11
ATOM     11  C   LIG    1        1.304  -1.746   1.260  0.00  0.00    +0.160 C 
BRANCH  11  12
ATOM     12  C   LIG    1        2.534  -2.647   1.129  0.00  0.00    +0.030 C 
ATOM     13  C   LIG    1        2.308  -3.658   0.003  0.00  0.00    +0.060 C 
ENDBRANCH  11  12
BRANCH  11  14
ATOM     14  C   LIG    1        1.137  -0.923  -0.020  0.00  0.00    +0.090 C 
BRANCH  14  16
ATOM     15  C   LIG    1       -0.113   1.173  -0.105  0.00  0.00    +0.060 C 
ATOM     16  C   LIG    1       -0.140  -0.127   0.058  0.00  0.00    -0.090 C 
ENDBRANCH  14  16
ENDBRANCH  11  14
ENDBRANCH   1  11
TORSDOF 9
ENDMDL
MODEL      779
REMARK  Name = ZINC000379594184
REMARK                            x       y       z     vdW  Elec       q    Type
REMARK                         _______ _______ _______ _____ _____    ______ ____
ROOT
ATOM      1  N   LIG    1        1.383  -0.997   2.579  0.00  0.00    -0.500 N 
ATOM      2  H   LIG    1        0.575  -0.392   2.594  0.00  0.00    +0.420 HD
ATOM      3  H   LIG    1        2.213  -0.455   2.769  0.00  0.00    +0.420 HD
ENDROOT
BRANCH   1   4
ATOM      4  C   LIG    1        1.234  -2.039   3.603  0.00  0.00    +0.150 C 
ATOM      5  C   LIG    1        2.480  -2.928   3.612  0.00  0.00    +0.080 C 
BRANCH   4   6
ATOM      6  C   LIG    1        1.065  -1.385   4.976  0.00  0.00    +0.060 C 
BRANCH   6   7
ATOM      7  C   LIG    1       -0.246  -0.597   5.007  0.00  0.00    +0.000 C 
BRANCH   7   8
ATOM      8  C   LIG    1       -0.416   0.058   6.379  0.00  0.00    +0.020 C 
BRANCH   8   9
ATOM      9  C   LIG    1       -1.727   0.846   6.410  0.00  0.00    -0.010 C 
ATOM     10  C   LIG    1       -1.896   1.500   7.783  0.00  0.00    +0.020 C 
ENDBRANCH   8   9
ENDBRANCH   7   8
ENDBRANCH   6   7
ENDBRANCH   4   6
ENDBRANCH   1   4
BRANCH   1  11
ATOM     11  C   LIG    1        1.500  -1.624   1.256  0.00  0.00    +0.160 C 
BRANCH  11  12
ATOM     12  C   LIG    1        1.946  -0.577   0.233  0.00  0.00    +0.050 C 
ATOM     13  C   LIG    1        3.336  -0.059   0.605  0.00  0.00    +0.040 C 
ENDBRANCH  11  12
BRANCH  11  14
ATOM     14  C   LIG    1        0.144  -2.197   0.841  0.00  0.00    +0.100 C 
BRANCH  14  16
ATOM     15  C   LIG    1       -1.345  -3.411   2.348  0.00  0.00    +0.050 C 
ATOM     16  C   LIG    1       -0.195  -3.373   1.722  0.00  0.00    -0.060 C 
ENDBRANCH  14  16
ENDBRANCH  11  14
ENDBRANCH   1  11
TORSDOF 9
ENDMDL
MODEL      780
REMARK  Name = ZINC000232658465
REMARK                            x       y       z     vdW  Elec       q    Type
REMARK                         _______ _______ _______ _____ _____    ______ ____
ROOT
ATOM      1  C   LIG    1        4.145  -5.166   3.480  0.00  0.00    +0.030 C 
ENDROOT
BRANCH   1   2
ATOM      2  C   LIG    1        4.093  -4.188   2.304  0.00  0.00    +0.020 C 
BRANCH   2   3
ATOM      3  C   LIG    1        2.757  -3.441   2.321  0.00  0.00    +0.020 C 
BRANCH   3   4
ATOM      4  C   LIG    1        2.705  -2.464   1.145  0.00  0.00    +0.000 C 
BRANCH   4   5
ATOM      5  C   LIG    1        1.370  -1.717   1.161  0.00  0.00    +0.000 C 
BRANCH   5   6
ATOM      6  C   LIG    1        1.317  -0.740  -0.015  0.00  0.00    +0.040 C 
BRANCH   6   8
ATOM      7  C   LIG    1       -0.016   1.306   0.009  0.00  0.00    +0.010 C 
ATOM      8  C   LIG    1        0.002  -0.004   0.002  0.00  0.00    -0.050 C 
ENDBRANCH   6   8
ENDBRANCH   5   6
ENDBRANCH   4   5
ENDBRANCH   3   4
ENDBRANCH   2   3
ENDBRANCH   1   2
BRANCH   1   9
ATOM      9  C   LIG    1        5.480  -5.912   3.463  0.00  0.00    +0.250 C 
BRANCH   9  10
ATOM     10  N   LIG    1        5.530  -6.851   4.592  0.00  0.00    -0.510 N 
ATOM     11  H   LIG    1        4.774  -7.513   4.513  0.00  0.00    +0.430 HD
ATOM     12  H   LIG    1        5.441  -6.341   5.458  0.00  0.00    +0.430 HD
BRANCH  10  13
ATOM     13  C   LIG    1        6.812  -7.568   4.576  0.00  0.00    +0.160 C 
ATOM     14  C   LIG    1        6.894  -8.440   3.321  0.00  0.00    +0.080 C 
ATOM     15  C   LIG    1        6.917  -8.453   5.820  0.00  0.00    +0.090 C 
ENDBRANCH  10  13
ENDBRANCH   9  10
ENDBRANCH   1   9
TORSDOF 9
ENDMDL
MODEL      781
REMARK  Name = ZINC000678270489
REMARK                            x       y       z     vdW  Elec       q    Type
REMARK                         _______ _______ _______ _____ _____    ______ ____
ROOT
ATOM      1  N   LIG    1        4.143  -5.127   3.433  0.00  0.00    -0.380 N 
ATOM      2  C   LIG    1        3.116  -6.162   3.255  0.00  0.00    +0.320 C 
ATOM      3  H   LIG    1        3.972  -4.628   4.293  0.00  0.00    +0.420 HD
ENDROOT
BRANCH   1   4
ATOM      4  C   LIG    1        5.469  -5.756   3.488  0.00  0.00    +0.160 C 
ATOM      5  C   LIG    1        6.557  -4.701   3.805  0.00  0.00    +0.040 C 
ATOM      6  C   LIG    1        7.697  -5.558   4.410  0.00  0.00    +0.050 C 
ATOM      7  C   LIG    1        6.965  -6.622   5.253  0.00  0.00    +0.030 C 
ATOM      8  C   LIG    1        5.548  -6.748   4.667  0.00  0.00    +0.040 C 
ENDBRANCH   1   4
BRANCH   1   9
ATOM      9  C   LIG    1        4.093  -4.188   2.304  0.00  0.00    +0.250 C 
BRANCH   9  10
ATOM     10  C   LIG    1        2.757  -3.441   2.321  0.00  0.00    +0.030 C 
BRANCH  10  11
ATOM     11  C   LIG    1        2.705  -2.464   1.145  0.00  0.00    +0.020 C 
BRANCH  11  12
ATOM     12  C   LIG    1        1.370  -1.717   1.161  0.00  0.00    +0.020 C 
BRANCH  12  13
ATOM     13  C   LIG    1        1.317  -0.740  -0.015  0.00  0.00    +0.050 C 
BRANCH  13  15
ATOM     14  C   LIG    1       -0.016   1.306   0.009  0.00  0.00    +0.020 C 
ATOM     15  C   LIG    1        0.002  -0.004   0.002  0.00  0.00    -0.060 C 
ENDBRANCH  13  15
ENDBRANCH  12  13
ENDBRANCH  11  12
ENDBRANCH  10  11
ENDBRANCH   9  10
ENDBRANCH   1   9
TORSDOF 7
ENDMDL
MODEL      782
REMARK  Name = ZINC000122637679
REMARK                            x       y       z     vdW  Elec       q    Type
REMARK                         _______ _______ _______ _____ _____    ______ ____
ROOT
ATOM      1  N   LIG    1       -3.403  -1.343  -1.568  0.00  0.00    -0.500 N 
ATOM      2  H   LIG    1       -3.019  -1.241  -2.495  0.00  0.00    +0.420 HD
ATOM      3  H   LIG    1       -3.312  -0.472  -1.068  0.00  0.00    +0.420 HD
ENDROOT
BRANCH   1   4
ATOM      4  C   LIG    1       -4.823  -1.707  -1.664  0.00  0.00    +0.160 C 
ATOM      5  C   LIG    1       -5.047  -2.755  -2.782  0.00  0.00    +0.050 C 
ATOM      6  C   LIG    1       -6.528  -2.580  -3.175  0.00  0.00    +0.050 C 
ATOM      7  C   LIG    1       -6.922  -1.147  -2.773  0.00  0.00    -0.060 C 
ATOM      8  C   LIG    1       -8.057  -1.184  -1.748  0.00  0.00    +0.040 C 
ATOM      9  C   LIG    1       -7.359  -0.358  -4.009  0.00  0.00    +0.040 C 
ATOM     10  C   LIG    1       -5.667  -0.501  -2.146  0.00  0.00    +0.050 C 
ENDBRANCH   1   4
BRANCH   1  11
ATOM     11  C   LIG    1       -2.675  -2.398  -0.850  0.00  0.00    +0.170 C 
ATOM     12  C   LIG    1       -2.664  -3.675  -1.693  0.00  0.00    +0.080 C 
BRANCH  11  13
ATOM     13  C   LIG    1       -1.236  -1.943  -0.596  0.00  0.00    +0.060 C 
BRANCH  13  14
ATOM     14  C   LIG    1       -1.242  -0.739   0.348  0.00  0.00    +0.050 C 
BRANCH  14  16
ATOM     15  C   LIG    1        0.520   0.952   0.365  0.00  0.00    +0.040 C 
ATOM     16  C   LIG    1        0.175  -0.290   0.598  0.00  0.00    -0.050 C 
ENDBRANCH  14  16
ENDBRANCH  13  14
ENDBRANCH  11  13
ENDBRANCH   1  11
TORSDOF 5
ENDMDL
MODEL      783
REMARK  Name = ZINC000122638183
REMARK                            x       y       z     vdW  Elec       q    Type
REMARK                         _______ _______ _______ _____ _____    ______ ____
ROOT
ATOM      1  N   LIG    1       -3.754  -1.601  -1.393  0.00  0.00    -0.500 N 
ATOM      2  H   LIG    1       -3.684  -1.206  -2.319  0.00  0.00    +0.430 HD
ATOM      3  H   LIG    1       -3.723  -0.861  -0.708  0.00  0.00    +0.420 HD
ENDROOT
BRANCH   1   4
ATOM      4  C   LIG    1       -5.022  -2.332  -1.266  0.00  0.00    +0.160 C 
ATOM      5  C   LIG    1       -5.250  -2.771   0.202  0.00  0.00    +0.040 C 
ATOM      6  C   LIG    1       -6.788  -2.941   0.272  0.00  0.00    +0.050 C 
ATOM      7  C   LIG    1       -7.337  -1.789  -0.594  0.00  0.00    -0.060 C 
ATOM      8  C   LIG    1       -7.698  -0.594   0.291  0.00  0.00    +0.040 C 
ATOM      9  C   LIG    1       -8.569  -2.257  -1.370  0.00  0.00    +0.040 C 
ATOM     10  C   LIG    1       -6.214  -1.402  -1.576  0.00  0.00    +0.050 C 
ENDBRANCH   1   4
BRANCH   1  11
ATOM     11  C   LIG    1       -2.633  -2.524  -1.168  0.00  0.00    +0.160 C 
ATOM     12  C   LIG    1       -2.607  -3.575  -2.279  0.00  0.00    +0.090 C 
BRANCH  11  13
ATOM     13  C   LIG    1       -1.319  -1.741  -1.176  0.00  0.00    +0.060 C 
BRANCH  13  14
ATOM     14  C   LIG    1       -1.293  -0.775   0.010  0.00  0.00    +0.050 C 
BRANCH  14  16
ATOM     15  C   LIG    1       -0.016   1.306   0.009  0.00  0.00    +0.040 C 
ATOM     16  C   LIG    1        0.002  -0.004   0.002  0.00  0.00    -0.050 C 
ENDBRANCH  14  16
ENDBRANCH  13  14
ENDBRANCH  11  13
ENDBRANCH   1  11
TORSDOF 5
ENDMDL
MODEL      784
REMARK  Name = ZINC000122638462
REMARK                            x       y       z     vdW  Elec       q    Type
REMARK                         _______ _______ _______ _____ _____    ______ ____
ROOT
ATOM      1  N   LIG    1       -1.955  -3.288  -0.214  0.00  0.00    -0.510 N 
ATOM      2  H   LIG    1       -1.942  -2.830   0.684  0.00  0.00    +0.420 HD
ATOM      3  H   LIG    1       -1.008  -3.457  -0.519  0.00  0.00    +0.420 HD
ENDROOT
BRANCH   1   4
ATOM      4  C   LIG    1       -2.669  -4.567  -0.102  0.00  0.00    +0.160 C 
ATOM      5  C   LIG    1       -2.398  -5.450  -1.345  0.00  0.00    +0.050 C 
ATOM      6  C   LIG    1       -2.674  -6.879  -0.816  0.00  0.00    +0.050 C 
ATOM      7  C   LIG    1       -2.118  -6.863   0.623  0.00  0.00    -0.060 C 
ATOM      8  C   LIG    1       -0.694  -7.421   0.642  0.00  0.00    +0.040 C 
ATOM      9  C   LIG    1       -3.018  -7.693   1.541  0.00  0.00    +0.040 C 
ATOM     10  C   LIG    1       -2.118  -5.391   1.079  0.00  0.00    +0.050 C 
ENDBRANCH   1   4
BRANCH   1  11
ATOM     11  C   LIG    1       -2.638  -2.430  -1.192  0.00  0.00    +0.170 C 
ATOM     12  C   LIG    1       -2.488  -3.031  -2.591  0.00  0.00    +0.080 C 
BRANCH  11  13
ATOM     13  C   LIG    1       -2.014  -1.033  -1.167  0.00  0.00    +0.060 C 
BRANCH  13  14
ATOM     14  C   LIG    1       -2.273  -0.383   0.194  0.00  0.00    +0.040 C 
BRANCH  14  16
ATOM     15  C   LIG    1       -2.397   2.035   0.515  0.00  0.00    +0.050 C 
ATOM     16  C   LIG    1       -1.659   0.993   0.218  0.00  0.00    -0.070 C 
ENDBRANCH  14  16
ENDBRANCH  13  14
ENDBRANCH  11  13
ENDBRANCH   1  11
TORSDOF 5
ENDMDL
MODEL      785
REMARK  Name = ZINC000122637954
REMARK                            x       y       z     vdW  Elec       q    Type
REMARK                         _______ _______ _______ _____ _____    ______ ____
ROOT
ATOM      1  N   LIG    1       -2.688  -3.376   0.027  0.00  0.00    -0.500 N 
ATOM      2  H   LIG    1       -2.552  -2.809   0.851  0.00  0.00    +0.420 HD
ATOM      3  H   LIG    1       -1.962  -4.074  -0.024  0.00  0.00    +0.430 HD
ENDROOT
BRANCH   1   4
ATOM      4  C   LIG    1       -3.998  -4.036   0.098  0.00  0.00    +0.160 C 
ATOM      5  C   LIG    1       -5.116  -3.007   0.402  0.00  0.00    +0.040 C 
ATOM      6  C   LIG    1       -6.243  -3.849   1.035  0.00  0.00    +0.050 C 
ATOM      7  C   LIG    1       -5.577  -5.108   1.618  0.00  0.00    -0.060 C 
ATOM      8  C   LIG    1       -6.146  -6.360   0.949  0.00  0.00    +0.040 C 
ATOM      9  C   LIG    1       -5.808  -5.171   3.129  0.00  0.00    +0.040 C 
ATOM     10  C   LIG    1       -4.067  -4.991   1.316  0.00  0.00    +0.060 C 
ENDBRANCH   1   4
BRANCH   1  11
ATOM     11  C   LIG    1       -2.633  -2.524  -1.168  0.00  0.00    +0.160 C 
ATOM     12  C   LIG    1       -2.714  -3.398  -2.421  0.00  0.00    +0.090 C 
BRANCH  11  13
ATOM     13  C   LIG    1       -1.319  -1.741  -1.176  0.00  0.00    +0.060 C 
BRANCH  13  14
ATOM     14  C   LIG    1       -1.293  -0.775   0.010  0.00  0.00    +0.040 C 
BRANCH  14  16
ATOM     15  C   LIG    1       -0.016   1.306   0.009  0.00  0.00    +0.050 C 
ATOM     16  C   LIG    1        0.002  -0.004   0.002  0.00  0.00    -0.070 C 
ENDBRANCH  14  16
ENDBRANCH  13  14
ENDBRANCH  11  13
ENDBRANCH   1  11
TORSDOF 5
ENDMDL
MODEL      786
REMARK  Name = ZINC000161685548
REMARK                            x       y       z     vdW  Elec       q    Type
REMARK                         _______ _______ _______ _____ _____    ______ ____
ROOT
ATOM      1  N   LIG    1        0.453  -2.821   0.793  0.00  0.00    -0.500 N 
ATOM      2  H   LIG    1        0.669  -3.372  -0.024  0.00  0.00    +0.420 HD
ATOM      3  H   LIG    1       -0.454  -2.393   0.679  0.00  0.00    +0.420 HD
ENDROOT
BRANCH   1   4
ATOM      4  C   LIG    1        1.470  -1.775   0.962  0.00  0.00    +0.160 C 
ATOM      5  C   LIG    1        1.606  -0.980  -0.338  0.00  0.00    +0.090 C 
BRANCH   4   6
ATOM      6  C   LIG    1        1.052  -0.835   2.094  0.00  0.00    +0.090 C 
BRANCH   6   8
ATOM      7  C   LIG    1        2.447  -0.728   4.095  0.00  0.00    +0.080 C 
ATOM      8  C   LIG    1        1.543  -1.382   3.409  0.00  0.00    -0.100 C 
ENDBRANCH   6   8
ENDBRANCH   4   6
ENDBRANCH   1   4
BRANCH   1   9
ATOM      9  C   LIG    1        0.439  -3.688   1.979  0.00  0.00    +0.160 C 
ATOM     10  C   LIG    1        1.813  -4.338   2.150  0.00  0.00    +0.100 C 
BRANCH   9  11
ATOM     11  C   LIG    1       -0.622  -4.777   1.802  0.00  0.00    +0.050 C 
BRANCH  11  12
ATOM     12  C   LIG    1       -2.009  -4.133   1.756  0.00  0.00    +0.010 C 
BRANCH  12  13
ATOM     13  C   LIG    1       -3.070  -5.222   1.580  0.00  0.00    +0.020 C 
BRANCH  13  14
ATOM     14  C   LIG    1       -4.457  -4.579   1.533  0.00  0.00    +0.000 C 
BRANCH  14  15
ATOM     15  C   LIG    1       -5.518  -5.668   1.357  0.00  0.00    -0.010 C 
ATOM     16  C   LIG    1       -6.906  -5.025   1.310  0.00  0.00    +0.000 C 
ENDBRANCH  14  15
ENDBRANCH  13  14
ENDBRANCH  12  13
ENDBRANCH  11  12
ENDBRANCH   9  11
ENDBRANCH   1   9
TORSDOF 9
ENDMDL
MODEL      787
REMARK  Name = ZINC000161685674
REMARK                            x       y       z     vdW  Elec       q    Type
REMARK                         _______ _______ _______ _____ _____    ______ ____
ROOT
ATOM      1  N   LIG    1        0.343  -2.753   0.984  0.00  0.00    -0.510 N 
ATOM      2  H   LIG    1        0.560  -3.305   0.168  0.00  0.00    +0.420 HD
ATOM      3  H   LIG    1       -0.558  -2.315   0.864  0.00  0.00    +0.420 HD
ENDROOT
BRANCH   1   4
ATOM      4  C   LIG    1        1.370  -1.717   1.161  0.00  0.00    +0.170 C 
ATOM      5  C   LIG    1        2.751  -2.373   1.218  0.00  0.00    +0.090 C 
BRANCH   4   6
ATOM      6  C   LIG    1        1.317  -0.740  -0.015  0.00  0.00    +0.090 C 
BRANCH   6   8
ATOM      7  C   LIG    1       -0.016   1.306   0.009  0.00  0.00    +0.090 C 
ATOM      8  C   LIG    1        0.002  -0.004   0.002  0.00  0.00    -0.110 C 
ENDBRANCH   6   8
ENDBRANCH   4   6
ENDBRANCH   1   4
BRANCH   1   9
ATOM      9  C   LIG    1        0.312  -3.620   2.168  0.00  0.00    +0.160 C 
ATOM     10  C   LIG    1       -0.138  -2.808   3.384  0.00  0.00    +0.090 C 
BRANCH   9  11
ATOM     11  C   LIG    1       -0.667  -4.771   1.933  0.00  0.00    +0.050 C 
BRANCH  11  12
ATOM     12  C   LIG    1       -0.151  -5.656   0.796  0.00  0.00    +0.010 C 
BRANCH  12  13
ATOM     13  C   LIG    1       -1.131  -6.807   0.560  0.00  0.00    +0.020 C 
BRANCH  13  14
ATOM     14  C   LIG    1       -0.615  -7.692  -0.577  0.00  0.00    +0.000 C 
BRANCH  14  15
ATOM     15  C   LIG    1       -1.595  -8.843  -0.813  0.00  0.00    -0.010 C 
ATOM     16  C   LIG    1       -1.079  -9.727  -1.949  0.00  0.00    +0.010 C 
ENDBRANCH  14  15
ENDBRANCH  13  14
ENDBRANCH  12  13
ENDBRANCH  11  12
ENDBRANCH   9  11
ENDBRANCH   1   9
TORSDOF 9
ENDMDL
MODEL      788
REMARK  Name = ZINC000161677799
REMARK                            x       y       z     vdW  Elec       q    Type
REMARK                         _______ _______ _______ _____ _____    ______ ____
ROOT
ATOM      1  N   LIG    1       -0.372  -2.823  -0.820  0.00  0.00    -0.500 N 
ATOM      2  H   LIG    1       -0.573  -3.389  -0.009  0.00  0.00    +0.420 HD
ATOM      3  H   LIG    1        0.523  -2.372  -0.701  0.00  0.00    +0.420 HD
ENDROOT
BRANCH   1   4
ATOM      4  C   LIG    1       -1.418  -1.804  -0.978  0.00  0.00    +0.160 C 
ATOM      5  C   LIG    1       -1.575  -1.027   0.331  0.00  0.00    +0.090 C 
BRANCH   4   6
ATOM      6  C   LIG    1       -1.025  -0.840  -2.099  0.00  0.00    +0.090 C 
BRANCH   6   8
ATOM      7  C   LIG    1       -2.423  -0.749  -4.099  0.00  0.00    +0.080 C 
ATOM      8  C   LIG    1       -1.502  -1.386  -3.421  0.00  0.00    -0.100 C 
ENDBRANCH   6   8
ENDBRANCH   4   6
ENDBRANCH   1   4
BRANCH   1   9
ATOM      9  C   LIG    1       -0.335  -3.677  -2.015  0.00  0.00    +0.160 C 
ATOM     10  C   LIG    1       -1.691  -4.362  -2.194  0.00  0.00    +0.100 C 
BRANCH   9  11
ATOM     11  C   LIG    1        0.755  -4.738  -1.851  0.00  0.00    +0.050 C 
BRANCH  11  12
ATOM     12  C   LIG    1        2.124  -4.058  -1.797  0.00  0.00    -0.000 C 
BRANCH  12  13
ATOM     13  C   LIG    1        3.214  -5.119  -1.632  0.00  0.00    +0.020 C 
BRANCH  13  14
ATOM     14  C   LIG    1        4.584  -4.439  -1.578  0.00  0.00    -0.010 C 
ATOM     15  C   LIG    1        5.674  -5.500  -1.414  0.00  0.00    +0.020 C 
ENDBRANCH  13  14
ENDBRANCH  12  13
ENDBRANCH  11  12
ENDBRANCH   9  11
ENDBRANCH   1   9
TORSDOF 8
ENDMDL
MODEL      789
REMARK  Name = ZINC000161685785
REMARK                            x       y       z     vdW  Elec       q    Type
REMARK                         _______ _______ _______ _____ _____    ______ ____
ROOT
ATOM      1  N   LIG    1        1.361  -0.966   2.424  0.00  0.00    -0.510 N 
ATOM      2  H   LIG    1        0.559  -0.353   2.445  0.00  0.00    +0.420 HD
ATOM      3  H   LIG    1        2.204  -0.417   2.494  0.00  0.00    +0.420 HD
ENDROOT
BRANCH   1   4
ATOM      4  C   LIG    1        1.370  -1.717   1.161  0.00  0.00    +0.170 C 
ATOM      5  C   LIG    1        2.649  -2.552   1.074  0.00  0.00    +0.090 C 
BRANCH   4   6
ATOM      6  C   LIG    1        1.317  -0.740  -0.015  0.00  0.00    +0.100 C 
BRANCH   6   8
ATOM      7  C   LIG    1       -0.016   1.306   0.009  0.00  0.00    +0.060 C 
ATOM      8  C   LIG    1        0.002  -0.004   0.002  0.00  0.00    -0.090 C 
ENDBRANCH   6   8
ENDBRANCH   4   6
ENDBRANCH   1   4
BRANCH   1   9
ATOM      9  C   LIG    1        1.290  -1.904   3.552  0.00  0.00    +0.160 C 
ATOM     10  C   LIG    1       -0.046  -2.647   3.514  0.00  0.00    +0.090 C 
BRANCH   9  11
ATOM     11  C   LIG    1        1.406  -1.130   4.867  0.00  0.00    +0.050 C 
BRANCH  11  12
ATOM     12  C   LIG    1        2.792  -0.488   4.960  0.00  0.00    +0.010 C 
BRANCH  12  13
ATOM     13  C   LIG    1        2.908   0.285   6.275  0.00  0.00    +0.020 C 
BRANCH  13  14
ATOM     14  C   LIG    1        4.294   0.927   6.368  0.00  0.00    +0.000 C 
BRANCH  14  15
ATOM     15  C   LIG    1        4.410   1.701   7.683  0.00  0.00    -0.010 C 
ATOM     16  C   LIG    1        5.795   2.343   7.777  0.00  0.00    +0.000 C 
ENDBRANCH  14  15
ENDBRANCH  13  14
ENDBRANCH  12  13
ENDBRANCH  11  12
ENDBRANCH   9  11
ENDBRANCH   1   9
TORSDOF 9
ENDMDL
MODEL      790
REMARK  Name = ZINC000386832648
REMARK                            x       y       z     vdW  Elec       q    Type
REMARK                         _______ _______ _______ _____ _____    ______ ____
ROOT
ATOM      1  N   LIG    1       -2.590  -1.851  -1.539  0.00  0.00    -0.510 N 
ATOM      2  H   LIG    1       -3.272  -1.350  -0.991  0.00  0.00    +0.430 HD
ATOM      3  H   LIG    1       -2.374  -2.728  -1.088  0.00  0.00    +0.430 HD
ENDROOT
BRANCH   1   4
ATOM      4  C   LIG    1       -1.367  -1.046  -1.656  0.00  0.00    +0.250 C 
BRANCH   4   5
ATOM      5  C   LIG    1       -0.735  -0.876  -0.273  0.00  0.00    +0.070 C 
BRANCH   5   7
ATOM      6  C   LIG    1        0.474   1.244  -0.186  0.00  0.00    +0.050 C 
ATOM      7  C   LIG    1        0.519  -0.049  -0.392  0.00  0.00    -0.150 C 
ATOM      8  C   LIG    1        1.826  -0.710  -0.749  0.00  0.00    +0.070 C 
ENDBRANCH   5   7
ENDBRANCH   4   5
ENDBRANCH   1   4
BRANCH   1   9
ATOM      9  C   LIG    1       -3.134  -2.112  -2.879  0.00  0.00    +0.170 C 
BRANCH   9  10
ATOM     10  C   LIG    1       -3.584  -0.793  -3.511  0.00  0.00    +0.040 C 
BRANCH  10  11
ATOM     11  C   LIG    1       -4.036  -1.046  -4.951  0.00  0.00    +0.030 C 
ATOM     12  C   LIG    1       -4.364   0.287  -5.625  0.00  0.00    +0.030 C 
ENDBRANCH  10  11
ENDBRANCH   9  10
BRANCH   9  13
ATOM     13  C   LIG    1       -4.330  -3.059  -2.768  0.00  0.00    +0.060 C 
BRANCH  13  14
ATOM     14  C   LIG    1       -3.858  -4.419  -2.252  0.00  0.00    -0.000 C 
ATOM     15  C   LIG    1       -5.054  -5.367  -2.141  0.00  0.00    +0.030 C 
ENDBRANCH  13  14
ENDBRANCH   9  13
ENDBRANCH   1   9
TORSDOF 8
ENDMDL
MODEL      791
REMARK  Name = ZINC000678623739
REMARK                            x       y       z     vdW  Elec       q    Type
REMARK                         _______ _______ _______ _____ _____    ______ ____
ROOT
ATOM      1  N   LIG    1        1.811  -1.556   1.248  0.00  0.00    -0.380 N 
ATOM      2  H   LIG    1        1.927  -0.863   1.972  0.00  0.00    +0.420 HD
ENDROOT
BRANCH   1   3
ATOM      3  C   LIG    1        3.073  -2.286   1.064  0.00  0.00    +0.160 C 
ATOM      4  C   LIG    1        4.198  -1.293   0.767  0.00  0.00    +0.040 C 
ATOM      5  C   LIG    1        5.512  -2.053   0.575  0.00  0.00    +0.030 C 
ATOM      6  C   LIG    1        5.842  -2.831   1.851  0.00  0.00    +0.020 C 
ATOM      7  C   LIG    1        4.717  -3.824   2.148  0.00  0.00    +0.030 C 
ATOM      8  C   LIG    1        3.403  -3.064   2.340  0.00  0.00    +0.040 C 
ENDBRANCH   1   3
BRANCH   1   9
ATOM      9  C   LIG    1        0.753  -2.498   1.637  0.00  0.00    +0.230 C 
ATOM     10  C   LIG    1        0.549  -3.525   0.521  0.00  0.00    +0.080 C 
ENDBRANCH   1   9
BRANCH   1  11
ATOM     11  C   LIG    1        1.441  -0.894  -0.009  0.00  0.00    +0.290 C 
BRANCH  11  13
ATOM     12  C   LIG    1        0.313   1.210   0.504  0.00  0.00    +0.120 C 
ATOM     13  C   LIG    1        0.203  -0.061   0.207  0.00  0.00    -0.190 C 
BRANCH  13  14
ATOM     14  C   LIG    1       -1.160  -0.691   0.082  0.00  0.00    +0.060 C 
ATOM     15  C   LIG    1       -1.591  -0.686  -1.386  0.00  0.00    +0.040 C 
ENDBRANCH  13  14
ENDBRANCH  11  13
ENDBRANCH   1  11
TORSDOF 5
ENDMDL
MODEL      792
REMARK  Name = ZINC000161683984
REMARK                            x       y       z     vdW  Elec       q    Type
REMARK                         _______ _______ _______ _____ _____    ______ ____
ROOT
ATOM      1  N   LIG    1        0.343  -2.753   0.984  0.00  0.00    -0.510 N 
ATOM      2  H   LIG    1        0.560  -3.305   0.168  0.00  0.00    +0.420 HD
ATOM      3  H   LIG    1       -0.558  -2.315   0.864  0.00  0.00    +0.420 HD
ENDROOT
BRANCH   1   4
ATOM      4  C   LIG    1        0.312  -3.620   2.168  0.00  0.00    +0.160 C 
ATOM      5  C   LIG    1       -0.137  -2.808   3.384  0.00  0.00    +0.030 C 
ATOM      6  C   LIG    1       -0.551  -3.760   4.509  0.00  0.00    +0.030 C 
ATOM      7  C   LIG    1        0.699  -4.350   5.164  0.00  0.00    +0.010 C 
ATOM      8  C   LIG    1        1.292  -5.426   4.253  0.00  0.00    +0.000 C 
ATOM      9  C   LIG    1        0.169  -6.313   3.711  0.00  0.00    +0.010 C 
ATOM     10  C   LIG    1        0.036  -6.103   2.201  0.00  0.00    +0.030 C 
ATOM     11  C   LIG    1       -0.667  -4.771   1.932  0.00  0.00    +0.040 C 
ENDBRANCH   1   4
BRANCH   1  12
ATOM     12  C   LIG    1        1.370  -1.717   1.161  0.00  0.00    +0.170 C 
ATOM     13  C   LIG    1        2.751  -2.373   1.218  0.00  0.00    +0.090 C 
BRANCH  12  14
ATOM     14  C   LIG    1        1.317  -0.740  -0.015  0.00  0.00    +0.090 C 
BRANCH  14  16
ATOM     15  C   LIG    1       -0.016   1.306   0.009  0.00  0.00    +0.090 C 
ATOM     16  C   LIG    1        0.002  -0.004   0.002  0.00  0.00    -0.110 C 
ENDBRANCH  14  16
ENDBRANCH  12  14
ENDBRANCH   1  12
TORSDOF 4
ENDMDL
MODEL      793
REMARK  Name = ZINC000161684125
REMARK                            x       y       z     vdW  Elec       q    Type
REMARK                         _______ _______ _______ _____ _____    ______ ____
ROOT
ATOM      1  N   LIG    1        1.351  -1.085   2.372  0.00  0.00    -0.510 N 
ATOM      2  H   LIG    1        2.081  -0.428   2.607  0.00  0.00    +0.420 HD
ATOM      3  H   LIG    1        1.575  -1.538   1.499  0.00  0.00    +0.420 HD
ENDROOT
BRANCH   1   4
ATOM      4  C   LIG    1        1.241  -2.095   3.433  0.00  0.00    +0.160 C 
ATOM      5  C   LIG    1        2.517  -2.938   3.469  0.00  0.00    +0.030 C 
ATOM      6  C   LIG    1        2.584  -3.706   4.791  0.00  0.00    +0.030 C 
ATOM      7  C   LIG    1        1.613  -4.887   4.745  0.00  0.00    +0.010 C 
ATOM      8  C   LIG    1        0.182  -4.377   4.928  0.00  0.00    +0.000 C 
ATOM      9  C   LIG    1        0.147  -3.346   6.058  0.00  0.00    +0.010 C 
ATOM     10  C   LIG    1       -0.184  -1.968   5.481  0.00  0.00    +0.030 C 
ATOM     11  C   LIG    1        1.052  -1.398   4.782  0.00  0.00    +0.040 C 
ENDBRANCH   1   4
BRANCH   1  12
ATOM     12  C   LIG    1        0.074  -0.371   2.240  0.00  0.00    +0.170 C 
ATOM     13  C   LIG    1       -0.999  -1.337   1.732  0.00  0.00    +0.090 C 
BRANCH  12  14
ATOM     14  C   LIG    1        0.234   0.782   1.248  0.00  0.00    +0.100 C 
BRANCH  14  16
ATOM     15  C   LIG    1        2.250   2.152   1.109  0.00  0.00    +0.060 C 
ATOM     16  C   LIG    1        1.200   1.794   1.806  0.00  0.00    -0.090 C 
ENDBRANCH  14  16
ENDBRANCH  12  14
ENDBRANCH   1  12
TORSDOF 4
ENDMDL
MODEL      794
REMARK  Name = ZINC000161678223
REMARK                            x       y       z     vdW  Elec       q    Type
REMARK                         _______ _______ _______ _____ _____    ______ ____
ROOT
ATOM      1  N   LIG    1       -1.215  -0.951  -2.574  0.00  0.00    -0.500 N 
ATOM      2  H   LIG    1       -0.377  -0.394  -2.501  0.00  0.00    +0.420 HD
ATOM      3  H   LIG    1       -1.993  -0.356  -2.818  0.00  0.00    +0.420 HD
ENDROOT
BRANCH   1   4
ATOM      4  C   LIG    1       -1.483  -1.605  -1.287  0.00  0.00    +0.160 C 
ATOM      5  C   LIG    1       -1.960  -0.562  -0.274  0.00  0.00    +0.090 C 
BRANCH   4   6
ATOM      6  C   LIG    1       -0.202  -2.266  -0.774  0.00  0.00    +0.100 C 
BRANCH   6   8
ATOM      7  C   LIG    1        1.347  -3.524  -2.182  0.00  0.00    +0.060 C 
ATOM      8  C   LIG    1        0.149  -3.435  -1.659  0.00  0.00    -0.060 C 
ENDBRANCH   6   8
ENDBRANCH   4   6
ENDBRANCH   1   4
BRANCH   1   9
ATOM      9  C   LIG    1       -1.034  -1.972  -3.615  0.00  0.00    +0.150 C 
ATOM     10  C   LIG    1       -2.326  -2.779  -3.767  0.00  0.00    +0.080 C 
BRANCH   9  11
ATOM     11  C   LIG    1       -0.698  -1.292  -4.944  0.00  0.00    +0.060 C 
BRANCH  11  12
ATOM     12  C   LIG    1        0.656  -0.589  -4.828  0.00  0.00    +0.010 C 
BRANCH  12  13
ATOM     13  C   LIG    1        0.992   0.091  -6.157  0.00  0.00    +0.020 C 
BRANCH  13  14
ATOM     14  C   LIG    1        2.346   0.795  -6.041  0.00  0.00    -0.010 C 
ATOM     15  C   LIG    1        2.682   1.475  -7.370  0.00  0.00    +0.020 C 
ENDBRANCH  13  14
ENDBRANCH  12  13
ENDBRANCH  11  12
ENDBRANCH   9  11
ENDBRANCH   1   9
TORSDOF 8
ENDMDL
MODEL      795
REMARK  Name = ZINC000386896739
REMARK                            x       y       z     vdW  Elec       q    Type
REMARK                         _______ _______ _______ _____ _____    ______ ____
ROOT
ATOM      1  N   LIG    1       -2.576  -1.847  -1.544  0.00  0.00    -0.510 N 
ATOM      2  H   LIG    1       -3.263  -1.355  -0.993  0.00  0.00    +0.430 HD
ATOM      3  H   LIG    1       -2.349  -2.723  -1.097  0.00  0.00    +0.430 HD
ENDROOT
BRANCH   1   4
ATOM      4  C   LIG    1       -1.362  -1.028  -1.659  0.00  0.00    +0.250 C 
BRANCH   4   5
ATOM      5  C   LIG    1       -0.730  -0.856  -0.277  0.00  0.00    +0.070 C 
BRANCH   5   7
ATOM      6  C   LIG    1        0.457   1.276  -0.184  0.00  0.00    +0.050 C 
ATOM      7  C   LIG    1        0.516  -0.016  -0.395  0.00  0.00    -0.150 C 
ATOM      8  C   LIG    1        1.829  -0.661  -0.755  0.00  0.00    +0.070 C 
ENDBRANCH   5   7
ENDBRANCH   4   5
ENDBRANCH   1   4
BRANCH   1   9
ATOM      9  C   LIG    1       -3.119  -2.109  -2.884  0.00  0.00    +0.170 C 
BRANCH   9  10
ATOM     10  C   LIG    1       -3.584  -0.793  -3.511  0.00  0.00    +0.030 C 
ATOM     11  C   LIG    1       -4.036  -1.046  -4.951  0.00  0.00    +0.060 C 
ENDBRANCH   9  10
BRANCH   9  12
ATOM     12  C   LIG    1       -4.304  -3.070  -2.775  0.00  0.00    +0.060 C 
BRANCH  12  13
ATOM     13  C   LIG    1       -3.816  -4.427  -2.264  0.00  0.00    +0.010 C 
BRANCH  13  14
ATOM     14  C   LIG    1       -5.002  -5.387  -2.155  0.00  0.00    +0.010 C 
ATOM     15  C   LIG    1       -4.514  -6.744  -1.645  0.00  0.00    +0.010 C 
ENDBRANCH  13  14
ENDBRANCH  12  13
ENDBRANCH   9  12
ENDBRANCH   1   9
TORSDOF 8
ENDMDL
MODEL      796
REMARK  Name = ZINC000678623273
REMARK                            x       y       z     vdW  Elec       q    Type
REMARK                         _______ _______ _______ _____ _____    ______ ____
ROOT
ATOM      1  N   LIG    1        1.699  -1.091   1.360  0.00  0.00    -0.380 N 
ATOM      2  C   LIG    1        0.711  -1.910   2.075  0.00  0.00    +0.300 C 
ATOM      3  H   LIG    1        1.340  -0.853   0.447  0.00  0.00    +0.420 HD
ENDROOT
BRANCH   1   4
ATOM      4  C   LIG    1        2.948  -1.850   1.212  0.00  0.00    +0.170 C 
ATOM      5  C   LIG    1        3.399  -2.349   2.558  0.00  0.00    +0.030 C 
ATOM      6  C   LIG    1        4.934  -2.386   2.689  0.00  0.00    +0.030 C 
ATOM      7  C   LIG    1        5.629  -2.916   1.421  0.00  0.00    +0.000 C 
ATOM      8  C   LIG    1        4.915  -4.099   0.824  0.00  0.00    +0.020 C 
ATOM      9  C   LIG    1        3.949  -3.589  -0.265  0.00  0.00    +0.020 C 
ATOM     10  C   LIG    1        2.711  -3.066   0.293  0.00  0.00    +0.040 C 
ENDBRANCH   1   4
BRANCH   1  11
ATOM     11  C   LIG    1        1.959   0.138   2.121  0.00  0.00    +0.290 C 
BRANCH  11  13
ATOM     12  C   LIG    1       -0.113   0.906   3.160  0.00  0.00    +0.110 C 
ATOM     13  C   LIG    1        0.713   0.986   2.147  0.00  0.00    -0.190 C 
BRANCH  13  14
ATOM     14  C   LIG    1        0.418   1.926   1.006  0.00  0.00    +0.060 C 
ATOM     15  C   LIG    1        1.148   3.251   1.236  0.00  0.00    +0.040 C 
ENDBRANCH  13  14
ENDBRANCH  11  13
ENDBRANCH   1  11
TORSDOF 4
ENDMDL
MODEL      797
REMARK  Name = ZINC000386896740
REMARK                            x       y       z     vdW  Elec       q    Type
REMARK                         _______ _______ _______ _____ _____    ______ ____
ROOT
ATOM      1  N   LIG    1       -3.004  -1.966  -1.387  0.00  0.00    -0.510 N 
ATOM      2  H   LIG    1       -3.679  -1.372  -0.930  0.00  0.00    +0.430 HD
ATOM      3  H   LIG    1       -2.990  -2.869  -0.938  0.00  0.00    +0.430 HD
ENDROOT
BRANCH   1   4
ATOM      4  C   LIG    1       -1.672  -1.353  -1.297  0.00  0.00    +0.250 C 
BRANCH   4   5
ATOM      5  C   LIG    1       -1.343  -1.063   0.169  0.00  0.00    +0.070 C 
BRANCH   5   7
ATOM      6  C   LIG    1        0.144   0.869   0.302  0.00  0.00    +0.050 C 
ATOM      7  C   LIG    1        0.024  -0.435   0.262  0.00  0.00    -0.150 C 
ATOM      8  C   LIG    1        1.252  -1.306   0.309  0.00  0.00    +0.070 C 
ENDBRANCH   5   7
ENDBRANCH   4   5
ENDBRANCH   1   4
BRANCH   1   9
ATOM      9  C   LIG    1       -3.373  -2.128  -2.800  0.00  0.00    +0.170 C 
BRANCH   9  10
ATOM     10  C   LIG    1       -2.435  -3.142  -3.459  0.00  0.00    +0.030 C 
ATOM     11  C   LIG    1       -2.729  -3.208  -4.959  0.00  0.00    +0.060 C 
ENDBRANCH   9  10
BRANCH   9  12
ATOM     12  C   LIG    1       -4.815  -2.630  -2.896  0.00  0.00    +0.060 C 
BRANCH  12  13
ATOM     13  C   LIG    1       -5.764  -1.561  -2.350  0.00  0.00    +0.010 C 
BRANCH  13  14
ATOM     14  C   LIG    1       -7.206  -2.063  -2.446  0.00  0.00    +0.010 C 
ATOM     15  C   LIG    1       -8.156  -0.995  -1.900  0.00  0.00    +0.010 C 
ENDBRANCH  13  14
ENDBRANCH  12  13
ENDBRANCH   9  12
ENDBRANCH   1   9
TORSDOF 8
ENDMDL
MODEL      798
REMARK  Name = ZINC000678624892
REMARK                            x       y       z     vdW  Elec       q    Type
REMARK                         _______ _______ _______ _____ _____    ______ ____
ROOT
ATOM      1  N   LIG    1        1.278  -0.927   1.112  0.00  0.00    -0.380 N 
ATOM      2  H   LIG    1        0.426  -1.338   1.465  0.00  0.00    +0.420 HD
ENDROOT
BRANCH   1   3
ATOM      3  C   LIG    1        2.269  -1.985   0.874  0.00  0.00    +0.160 C 
ATOM      4  C   LIG    1        2.366  -2.924   2.102  0.00  0.00    +0.040 C 
ATOM      5  C   LIG    1        2.926  -4.232   1.488  0.00  0.00    +0.040 C 
ATOM      6  C   LIG    1        2.227  -4.336   0.117  0.00  0.00    +0.030 C 
ATOM      7  C   LIG    1        1.810  -2.908  -0.274  0.00  0.00    +0.030 C 
ENDBRANCH   1   3
BRANCH   1   8
ATOM      8  C   LIG    1        1.806   0.026   2.097  0.00  0.00    +0.160 C 
ATOM      9  C   LIG    1        3.175   0.529   1.636  0.00  0.00    +0.090 C 
ATOM     10  C   LIG    1        1.947  -0.667   3.453  0.00  0.00    +0.080 C 
ENDBRANCH   1   8
BRANCH   1  11
ATOM     11  C   LIG    1        0.998  -0.226  -0.148  0.00  0.00    +0.300 C 
BRANCH  11  13
ATOM     12  C   LIG    1        0.148   2.013   0.328  0.00  0.00    +0.110 C 
ATOM     13  C   LIG    1       -0.123   0.759   0.064  0.00  0.00    -0.190 C 
BRANCH  13  14
ATOM     14  C   LIG    1       -1.556   0.301  -0.029  0.00  0.00    +0.060 C 
ATOM     15  C   LIG    1       -2.006   0.327  -1.491  0.00  0.00    +0.040 C 
ENDBRANCH  13  14
ENDBRANCH  11  13
ENDBRANCH   1  11
TORSDOF 5
ENDMDL
MODEL      799
REMARK  Name = ZINC000678624017
REMARK                            x       y       z     vdW  Elec       q    Type
REMARK                         _______ _______ _______ _____ _____    ______ ____
ROOT
ATOM      1  N   LIG    1        1.604  -2.173   2.295  0.00  0.00    -0.350 N 
ATOM      2  H   LIG    1        1.106  -2.993   2.607  0.00  0.00    +0.420 HD
ENDROOT
BRANCH   1   3
ATOM      3  C   LIG    1        1.759  -1.238   3.418  0.00  0.00    +0.100 C 
ATOM      4  C   LIG    1        1.181  -1.657   4.771  0.00  0.00    +0.100 C 
ATOM      5  C   LIG    1        2.696  -1.650   4.556  0.00  0.00    +0.090 C 
ENDBRANCH   1   3
BRANCH   1   6
ATOM      6  C   LIG    1        0.848  -1.521   1.217  0.00  0.00    +0.300 C 
BRANCH   6   8
ATOM      7  C   LIG    1       -0.893  -0.108   2.182  0.00  0.00    +0.120 C 
ATOM      8  C   LIG    1       -0.565  -1.270   1.675  0.00  0.00    -0.190 C 
BRANCH   8   9
ATOM      9  C   LIG    1       -1.602  -2.357   1.549  0.00  0.00    +0.050 C 
ATOM     10  C   LIG    1       -2.207  -2.324   0.144  0.00  0.00    +0.040 C 
ENDBRANCH   8   9
ENDBRANCH   6   8
ENDBRANCH   1   6
BRANCH   1  11
ATOM     11  C   LIG    1        2.929  -2.564   1.797  0.00  0.00    +0.160 C 
BRANCH  11  12
ATOM     12  C   LIG    1        3.611  -1.354   1.155  0.00  0.00    +0.050 C 
ATOM     13  C   LIG    1        4.006  -0.354   2.244  0.00  0.00    +0.030 C 
ENDBRANCH  11  12
BRANCH  11  14
ATOM     14  C   LIG    1        2.776  -3.674   0.755  0.00  0.00    +0.050 C 
ATOM     15  C   LIG    1        2.195  -4.923   1.423  0.00  0.00    +0.030 C 
ENDBRANCH  11  14
ENDBRANCH   1  11
TORSDOF 7
ENDMDL
MODEL      800
REMARK  Name = ZINC000678625039
REMARK                            x       y       z     vdW  Elec       q    Type
REMARK                         _______ _______ _______ _____ _____    ______ ____
ROOT
ATOM      1  N   LIG    1        4.143  -5.127   3.433  0.00  0.00    -0.380 N 
ATOM      2  C   LIG    1        3.116  -6.162   3.255  0.00  0.00    +0.310 C 
ATOM      3  H   LIG    1        3.972  -4.628   4.293  0.00  0.00    +0.420 HD
ENDROOT
BRANCH   1   4
ATOM      4  C   LIG    1        4.093  -4.188   2.304  0.00  0.00    +0.250 C 
BRANCH   4   5
ATOM      5  C   LIG    1        2.757  -3.441   2.321  0.00  0.00    +0.030 C 
BRANCH   5   6
ATOM      6  C   LIG    1        2.705  -2.464   1.145  0.00  0.00    +0.020 C 
BRANCH   6   7
ATOM      7  C   LIG    1        1.370  -1.717   1.161  0.00  0.00    +0.020 C 
BRANCH   7   8
ATOM      8  C   LIG    1        1.317  -0.740  -0.015  0.00  0.00    +0.050 C 
BRANCH   8  10
ATOM      9  C   LIG    1       -0.016   1.306   0.009  0.00  0.00    +0.020 C 
ATOM     10  C   LIG    1        0.002  -0.004   0.002  0.00  0.00    -0.060 C 
ENDBRANCH   8  10
ENDBRANCH   7   8
ENDBRANCH   6   7
ENDBRANCH   5   6
ENDBRANCH   4   5
ENDBRANCH   1   4
BRANCH   1  11
ATOM     11  C   LIG    1        5.469  -5.756   3.488  0.00  0.00    +0.290 C 
BRANCH  11  12
ATOM     12  C   LIG    1        5.562  -6.625   4.715  0.00  0.00    -0.190 C 
ATOM     13  C   LIG    1        5.302  -7.907   4.632  0.00  0.00    +0.120 C 
BRANCH  12  14
ATOM     14  C   LIG    1        5.955  -6.020   6.039  0.00  0.00    +0.060 C 
ATOM     15  C   LIG    1        7.480  -5.964   6.142  0.00  0.00    +0.040 C 
ENDBRANCH  12  14
ENDBRANCH  11  12
ENDBRANCH   1  11
TORSDOF 9
ENDMDL
MODEL      801
REMARK  Name = ZINC000678714449
REMARK                            x       y       z     vdW  Elec       q    Type
REMARK                         _______ _______ _______ _____ _____    ______ ____
ROOT
ATOM      1  N   LIG    1       -2.425  -2.707  -3.607  0.00  0.00    -0.390 N 
ATOM      2  C   LIG    1       -1.174  -1.920  -3.564  0.00  0.00    +0.250 C 
ATOM      3  C   LIG    1        0.047  -2.737  -3.888  0.00  0.00    +0.050 C 
ATOM      4  C   LIG    1        0.347  -2.584  -5.395  0.00  0.00    +0.020 C 
ATOM      5  C   LIG    1       -0.529  -3.409  -6.217  0.00  0.00    +0.020 C 
ATOM      6  C   LIG    1       -2.017  -3.033  -6.039  0.00  0.00    +0.060 C 
ATOM      7  C   LIG    1       -2.503  -3.639  -4.751  0.00  0.00    +0.240 C 
ATOM      8  H   LIG    1       -3.205  -2.069  -3.657  0.00  0.00    +0.420 HD
ENDROOT
BRANCH   1   9
ATOM      9  C   LIG    1       -2.534  -3.481  -2.363  0.00  0.00    +0.150 C 
ATOM     10  C   LIG    1       -3.797  -4.343  -2.408  0.00  0.00    +0.080 C 
BRANCH   9  11
ATOM     11  C   LIG    1       -2.612  -2.524  -1.171  0.00  0.00    +0.030 C 
BRANCH  11  12
ATOM     12  C   LIG    1       -2.599  -3.328   0.130  0.00  0.00    +0.040 C 
BRANCH  12  13
ATOM     13  C   LIG    1       -2.549  -2.369   1.321  0.00  0.00    +0.060 C 
BRANCH  13  15
ATOM     14  C   LIG    1       -1.581  -2.973   3.480  0.00  0.00    +0.020 C 
ATOM     15  C   LIG    1       -2.536  -3.162   2.603  0.00  0.00    -0.060 C 
ENDBRANCH  13  15
ENDBRANCH  12  13
ENDBRANCH  11  12
ENDBRANCH   9  11
ENDBRANCH   1   9
TORSDOF 5
ENDMDL
MODEL      802
REMARK  Name = ZINC000387482430
REMARK                            x       y       z     vdW  Elec       q    Type
REMARK                         _______ _______ _______ _____ _____    ______ ____
ROOT
ATOM      1  N   LIG    1       -1.250  -1.297  -2.050  0.00  0.00    -0.500 N 
ATOM      2  H   LIG    1       -1.819  -0.678  -2.607  0.00  0.00    +0.420 HD
ATOM      3  H   LIG    1       -1.714  -1.481  -1.172  0.00  0.00    +0.420 HD
ENDROOT
BRANCH   1   4
ATOM      4  C   LIG    1        0.053  -0.669  -1.794  0.00  0.00    +0.160 C 
ATOM      5  C   LIG    1        0.892  -1.582  -0.897  0.00  0.00    +0.090 C 
BRANCH   4   6
ATOM      6  C   LIG    1       -0.158   0.677  -1.097  0.00  0.00    +0.100 C 
BRANCH   6   8
ATOM      7  C   LIG    1       -1.992   2.191  -1.648  0.00  0.00    +0.060 C 
ATOM      8  C   LIG    1       -0.878   1.617  -2.029  0.00  0.00    -0.090 C 
ENDBRANCH   6   8
ENDBRANCH   4   6
ENDBRANCH   1   4
BRANCH   1   9
ATOM      9  C   LIG    1       -1.051  -2.561  -2.772  0.00  0.00    +0.160 C 
BRANCH   9  10
ATOM     10  C   LIG    1       -0.907  -2.277  -4.268  0.00  0.00    -0.010 C 
ATOM     11  C   LIG    1        0.477  -1.650  -4.570  0.00  0.00    +0.010 C 
ATOM     12  C   LIG    1        0.689  -1.993  -6.065  0.00  0.00    +0.020 C 
ATOM     13  C   LIG    1        0.106  -3.414  -6.213  0.00  0.00    +0.010 C 
ATOM     14  C   LIG    1       -0.908  -3.594  -5.071  0.00  0.00    +0.050 C 
ENDBRANCH   9  10
BRANCH   9  15
ATOM     15  C   LIG    1       -2.256  -3.476  -2.540  0.00  0.00    +0.060 C 
ATOM     16  C   LIG    1       -2.308  -3.887  -1.067  0.00  0.00    +0.030 C 
ENDBRANCH   9  15
ENDBRANCH   1   9
TORSDOF 6
ENDMDL
MODEL      803
REMARK  Name = ZINC000678714664
REMARK                            x       y       z     vdW  Elec       q    Type
REMARK                         _______ _______ _______ _____ _____    ______ ____
ROOT
ATOM      1  N   LIG    1        2.653  -2.657   3.655  0.00  0.00    -0.380 N 
ATOM      2  H   LIG    1        3.447  -2.042   3.757  0.00  0.00    +0.420 HD
ENDROOT
BRANCH   1   3
ATOM      3  C   LIG    1        2.768  -3.400   2.393  0.00  0.00    +0.160 C 
ATOM      4  C   LIG    1        3.492  -2.537   1.357  0.00  0.00    +0.090 C 
BRANCH   3   5
ATOM      5  C   LIG    1        1.370  -3.749   1.878  0.00  0.00    +0.050 C 
BRANCH   5   6
ATOM      6  C   LIG    1        0.700  -4.726   2.846  0.00  0.00    +0.010 C 
BRANCH   6   7
ATOM      7  C   LIG    1       -0.641  -5.179   2.266  0.00  0.00    +0.060 C 
BRANCH   7   9
ATOM      8  C   LIG    1       -2.517  -5.907   3.650  0.00  0.00    +0.020 C 
ATOM      9  C   LIG    1       -1.302  -6.142   3.219  0.00  0.00    -0.060 C 
ENDBRANCH   7   9
ENDBRANCH   6   7
ENDBRANCH   5   6
ENDBRANCH   3   5
ENDBRANCH   1   3
BRANCH   1  10
ATOM     10  C   LIG    1        2.619  -3.602   4.779  0.00  0.00    +0.230 C 
ATOM     11  C   LIG    1        3.972  -4.307   4.893  0.00  0.00    +0.080 C 
ENDBRANCH   1  10
BRANCH   1  12
ATOM     12  C   LIG    1        1.417  -1.863   3.645  0.00  0.00    +0.290 C 
BRANCH  12  13
ATOM     13  C   LIG    1        1.374  -0.986   4.870  0.00  0.00    -0.190 C 
ATOM     14  C   LIG    1        0.842  -1.533   6.170  0.00  0.00    +0.100 C 
ATOM     15  C   LIG    1        1.799   0.251   4.806  0.00  0.00    +0.110 C 
ENDBRANCH  12  13
ENDBRANCH   1  12
TORSDOF 8
ENDMDL
MODEL      804
REMARK  Name = ZINC000678714665
REMARK                            x       y       z     vdW  Elec       q    Type
REMARK                         _______ _______ _______ _____ _____    ______ ____
ROOT
ATOM      1  N   LIG    1        1.684  -4.341   2.150  0.00  0.00    -0.380 N 
ATOM      2  H   LIG    1        1.858  -4.894   1.324  0.00  0.00    +0.420 HD
ENDROOT
BRANCH   1   3
ATOM      3  C   LIG    1        2.806  -3.419   2.369  0.00  0.00    +0.160 C 
ATOM      4  C   LIG    1        2.612  -2.686   3.697  0.00  0.00    +0.090 C 
BRANCH   3   5
ATOM      5  C   LIG    1        4.115  -4.210   2.409  0.00  0.00    +0.050 C 
BRANCH   5   6
ATOM      6  C   LIG    1        4.348  -4.881   1.054  0.00  0.00    +0.010 C 
BRANCH   6   7
ATOM      7  C   LIG    1        5.716  -5.566   1.052  0.00  0.00    +0.070 C 
BRANCH   7   9
ATOM      8  C   LIG    1        7.017  -5.941  -0.979  0.00  0.00    +0.030 C 
ATOM      9  C   LIG    1        5.945  -6.227  -0.282  0.00  0.00    -0.070 C 
ENDBRANCH   7   9
ENDBRANCH   6   7
ENDBRANCH   5   6
ENDBRANCH   3   5
ENDBRANCH   1   3
BRANCH   1  10
ATOM     10  C   LIG    1        0.445  -3.572   1.972  0.00  0.00    +0.250 C 
ATOM     11  C   LIG    1        0.534  -2.754   0.682  0.00  0.00    +0.080 C 
ENDBRANCH   1  10
BRANCH   1  12
ATOM     12  C   LIG    1        1.546  -5.229   3.312  0.00  0.00    +0.300 C 
BRANCH  12  13
ATOM     13  C   LIG    1        0.476  -6.254   3.037  0.00  0.00    -0.190 C 
ATOM     14  C   LIG    1       -0.971  -5.923   3.301  0.00  0.00    +0.100 C 
ATOM     15  C   LIG    1        0.803  -7.433   2.569  0.00  0.00    +0.110 C 
ENDBRANCH  12  13
ENDBRANCH   1  12
TORSDOF 8
ENDMDL
MODEL      805
REMARK  Name = ZINC000678714450
REMARK                            x       y       z     vdW  Elec       q    Type
REMARK                         _______ _______ _______ _____ _____    ______ ____
ROOT
ATOM      1  N   LIG    1       -1.582  -4.288  -2.091  0.00  0.00    -0.390 N 
ATOM      2  C   LIG    1       -1.556  -5.294  -3.175  0.00  0.00    +0.240 C 
ATOM      3  C   LIG    1       -0.965  -4.765  -4.454  0.00  0.00    +0.060 C 
ATOM      4  C   LIG    1        0.535  -5.128  -4.480  0.00  0.00    +0.020 C 
ATOM      5  C   LIG    1        1.331  -4.238  -3.643  0.00  0.00    +0.020 C 
ATOM      6  C   LIG    1        0.905  -4.298  -2.160  0.00  0.00    +0.050 C 
ATOM      7  C   LIG    1       -0.347  -3.481  -1.998  0.00  0.00    +0.250 C 
ATOM      8  H   LIG    1       -1.722  -4.765  -1.213  0.00  0.00    +0.420 HD
ENDROOT
BRANCH   1   9
ATOM      9  C   LIG    1       -2.717  -3.384  -2.318  0.00  0.00    +0.160 C 
ATOM     10  C   LIG    1       -2.582  -2.730  -3.694  0.00  0.00    +0.080 C 
BRANCH   9  11
ATOM     11  C   LIG    1       -4.023  -4.179  -2.257  0.00  0.00    +0.050 C 
BRANCH  11  12
ATOM     12  C   LIG    1       -4.194  -4.774  -0.858  0.00  0.00    +0.010 C 
BRANCH  12  13
ATOM     13  C   LIG    1       -5.557  -5.461  -0.758  0.00  0.00    +0.060 C 
BRANCH  13  15
ATOM     14  C   LIG    1       -6.767  -5.726   1.346  0.00  0.00    +0.030 C 
ATOM     15  C   LIG    1       -5.725  -6.047   0.620  0.00  0.00    -0.070 C 
ENDBRANCH  13  15
ENDBRANCH  12  13
ENDBRANCH  11  12
ENDBRANCH   9  11
ENDBRANCH   1   9
TORSDOF 5
ENDMDL
MODEL      806
REMARK  Name = ZINC000387482428
REMARK                            x       y       z     vdW  Elec       q    Type
REMARK                         _______ _______ _______ _____ _____    ______ ____
ROOT
ATOM      1  N   LIG    1       -1.405  -0.837  -2.912  0.00  0.00    -0.500 N 
ATOM      2  H   LIG    1       -0.662  -0.175  -3.076  0.00  0.00    +0.420 HD
ATOM      3  H   LIG    1       -2.287  -0.428  -3.183  0.00  0.00    +0.420 HD
ENDROOT
BRANCH   1   4
ATOM      4  C   LIG    1       -1.445  -1.184  -1.485  0.00  0.00    +0.170 C 
ATOM      5  C   LIG    1       -2.590  -2.167  -1.230  0.00  0.00    +0.080 C 
BRANCH   4   6
ATOM      6  C   LIG    1       -1.668   0.084  -0.658  0.00  0.00    +0.100 C 
BRANCH   6   8
ATOM      7  C   LIG    1       -0.655   2.235  -1.213  0.00  0.00    +0.060 C 
ATOM      8  C   LIG    1       -0.481   1.000  -0.812  0.00  0.00    -0.090 C 
ENDBRANCH   6   8
ENDBRANCH   4   6
ENDBRANCH   1   4
BRANCH   1   9
ATOM      9  C   LIG    1       -1.164  -2.050  -3.704  0.00  0.00    +0.170 C 
BRANCH   9  10
ATOM     10  C   LIG    1       -1.275  -1.717  -5.193  0.00  0.00    -0.020 C 
ATOM     11  C   LIG    1       -0.077  -0.844  -5.643  0.00  0.00    +0.010 C 
ATOM     12  C   LIG    1       -0.010  -1.115  -7.167  0.00  0.00    +0.030 C 
ATOM     13  C   LIG    1       -0.345  -2.615  -7.299  0.00  0.00    +0.010 C 
ATOM     14  C   LIG    1       -1.149  -2.998  -6.044  0.00  0.00    +0.040 C 
ENDBRANCH   9  10
BRANCH   9  15
ATOM     15  C   LIG    1        0.237  -2.586  -3.404  0.00  0.00    +0.050 C 
ATOM     16  C   LIG    1        0.167  -3.574  -2.238  0.00  0.00    +0.030 C 
ENDBRANCH   9  15
ENDBRANCH   1   9
TORSDOF 6
ENDMDL
MODEL      807
REMARK  Name = ZINC000678715606
REMARK                            x       y       z     vdW  Elec       q    Type
REMARK                         _______ _______ _______ _____ _____    ______ ____
ROOT
ATOM      1  N   LIG    1        1.722  -4.183   2.410  0.00  0.00    -0.380 N 
ATOM      2  C   LIG    1        0.612  -3.222   2.389  0.00  0.00    +0.300 C 
ATOM      3  H   LIG    1        1.686  -4.757   1.581  0.00  0.00    +0.420 HD
ENDROOT
BRANCH   1   4
ATOM      4  C   LIG    1        2.998  -3.456   2.447  0.00  0.00    +0.160 C 
ATOM      5  C   LIG    1        3.126  -2.716   3.780  0.00  0.00    +0.080 C 
BRANCH   4   6
ATOM      6  C   LIG    1        4.155  -4.448   2.302  0.00  0.00    +0.050 C 
BRANCH   6   7
ATOM      7  C   LIG    1        4.103  -5.092   0.915  0.00  0.00    +0.010 C 
BRANCH   7   8
ATOM      8  C   LIG    1        5.330  -5.986   0.723  0.00  0.00    +0.060 C 
BRANCH   8  10
ATOM      9  C   LIG    1        6.288  -6.483  -1.468  0.00  0.00    +0.030 C 
ATOM     10  C   LIG    1        5.279  -6.621  -0.643  0.00  0.00    -0.070 C 
ENDBRANCH   8  10
ENDBRANCH   7   8
ENDBRANCH   6   7
ENDBRANCH   4   6
ENDBRANCH   1   4
BRANCH   1  11
ATOM     11  C   LIG    1        1.610  -5.036   3.602  0.00  0.00    +0.250 C 
BRANCH  11  12
ATOM     12  C   LIG    1        0.662  -6.200   3.308  0.00  0.00    -0.090 C 
ATOM     13  C   LIG    1       -0.699  -5.653   2.873  0.00  0.00    +0.050 C 
ATOM     14  C   LIG    1        0.491  -7.049   4.569  0.00  0.00    +0.070 C 
ATOM     15  C   LIG    1        1.246  -7.063   2.188  0.00  0.00    +0.060 C 
ENDBRANCH  11  12
ENDBRANCH   1  11
TORSDOF 7
ENDMDL
MODEL      808
REMARK  Name = ZINC000678716118
REMARK                            x       y       z     vdW  Elec       q    Type
REMARK                         _______ _______ _______ _____ _____    ______ ____
ROOT
ATOM      1  N   LIG    1       -2.806  -2.726  -3.726  0.00  0.00    -0.380 N 
ATOM      2  C   LIG    1       -3.013  -3.719  -4.788  0.00  0.00    +0.320 C 
ATOM      3  H   LIG    1       -3.583  -2.083  -3.710  0.00  0.00    +0.420 HD
ENDROOT
BRANCH   1   4
ATOM      4  C   LIG    1       -2.710  -3.410  -2.429  0.00  0.00    +0.170 C 
ATOM      5  C   LIG    1       -1.623  -4.484  -2.498  0.00  0.00    +0.090 C 
BRANCH   4   6
ATOM      6  C   LIG    1       -4.053  -4.063  -2.096  0.00  0.00    +0.050 C 
BRANCH   6   7
ATOM      7  C   LIG    1       -5.124  -2.981  -1.949  0.00  0.00    +0.010 C 
BRANCH   7   8
ATOM      8  C   LIG    1       -6.460  -3.631  -1.584  0.00  0.00    +0.060 C 
BRANCH   8  10
ATOM      9  C   LIG    1       -8.621  -2.640  -2.136  0.00  0.00    +0.020 C 
ATOM     10  C   LIG    1       -7.515  -2.565  -1.439  0.00  0.00    -0.060 C 
ENDBRANCH   8  10
ENDBRANCH   7   8
ENDBRANCH   6   7
ENDBRANCH   4   6
ENDBRANCH   1   4
BRANCH   1  11
ATOM     11  C   LIG    1       -1.563  -1.987  -3.983  0.00  0.00    +0.250 C 
BRANCH  11  12
ATOM     12  C   LIG    1       -1.703  -1.188  -5.280  0.00  0.00    +0.040 C 
BRANCH  12  13
ATOM     13  C   LIG    1       -0.409  -0.418  -5.548  0.00  0.00    +0.070 C 
BRANCH  13  14
ATOM     14  C   LIG    1       -0.547   0.368  -6.826  0.00  0.00    -0.070 C 
ATOM     15  C   LIG    1       -0.333   1.661  -6.826  0.00  0.00    +0.030 C 
ENDBRANCH  13  14
ENDBRANCH  12  13
ENDBRANCH  11  12
ENDBRANCH   1  11
TORSDOF 9
ENDMDL
MODEL      809
REMARK  Name = ZINC000678715485
REMARK                            x       y       z     vdW  Elec       q    Type
REMARK                         _______ _______ _______ _____ _____    ______ ____
ROOT
ATOM      1  N   LIG    1        2.883  -2.690   3.700  0.00  0.00    -0.380 N 
ATOM      2  C   LIG    1        1.578  -2.045   3.892  0.00  0.00    +0.310 C 
ATOM      3  H   LIG    1        3.618  -2.021   3.874  0.00  0.00    +0.420 HD
ENDROOT
BRANCH   1   4
ATOM      4  C   LIG    1        2.987  -3.183   2.320  0.00  0.00    +0.170 C 
ATOM      5  C   LIG    1        1.943  -4.278   2.090  0.00  0.00    +0.090 C 
BRANCH   4   6
ATOM      6  C   LIG    1        4.387  -3.756   2.088  0.00  0.00    +0.050 C 
BRANCH   6   7
ATOM      7  C   LIG    1        5.424  -2.640   2.227  0.00  0.00    +0.010 C 
BRANCH   7   8
ATOM      8  C   LIG    1        6.823  -3.212   1.986  0.00  0.00    +0.060 C 
BRANCH   8  10
ATOM      9  C   LIG    1        8.844  -2.248   2.959  0.00  0.00    +0.020 C 
ATOM     10  C   LIG    1        7.845  -2.113   2.123  0.00  0.00    -0.060 C 
ENDBRANCH   8  10
ENDBRANCH   7   8
ENDBRANCH   6   7
ENDBRANCH   4   6
ENDBRANCH   1   4
BRANCH   1  11
ATOM     11  C   LIG    1        3.014  -3.816   4.634  0.00  0.00    +0.240 C 
BRANCH  11  12
ATOM     12  C   LIG    1        3.015  -3.290   6.071  0.00  0.00    +0.040 C 
BRANCH  12  13
ATOM     13  C   LIG    1        3.152  -4.463   7.043  0.00  0.00    -0.010 C 
ATOM     14  C   LIG    1        1.915  -5.358   6.940  0.00  0.00    +0.020 C 
ATOM     15  C   LIG    1        3.277  -3.930   8.472  0.00  0.00    +0.040 C 
ENDBRANCH  12  13
ENDBRANCH  11  12
ENDBRANCH   1  11
TORSDOF 8
ENDMDL
MODEL      810
REMARK  Name = ZINC000387482429
REMARK                            x       y       z     vdW  Elec       q    Type
REMARK                         _______ _______ _______ _____ _____    ______ ____
ROOT
ATOM      1  N   LIG    1       -0.392  -2.971  -1.122  0.00  0.00    -0.510 N 
ATOM      2  H   LIG    1       -1.174  -2.334  -1.142  0.00  0.00    +0.420 HD
ATOM      3  H   LIG    1       -0.477  -3.583  -0.325  0.00  0.00    +0.420 HD
ENDROOT
BRANCH   1   4
ATOM      4  C   LIG    1        0.859  -2.206  -1.019  0.00  0.00    +0.170 C 
ATOM      5  C   LIG    1        0.925  -1.183  -2.155  0.00  0.00    +0.090 C 
BRANCH   4   6
ATOM      6  C   LIG    1        0.903  -1.479   0.326  0.00  0.00    +0.090 C 
BRANCH   6   8
ATOM      7  C   LIG    1        1.926  -2.434   2.326  0.00  0.00    +0.090 C 
ATOM      8  C   LIG    1        0.961  -2.490   1.442  0.00  0.00    -0.110 C 
ENDBRANCH   6   8
ENDBRANCH   4   6
ENDBRANCH   1   4
BRANCH   1   9
ATOM      9  C   LIG    1       -0.378  -3.770  -2.354  0.00  0.00    +0.170 C 
BRANCH   9  10
ATOM     10  C   LIG    1        0.723  -4.829  -2.263  0.00  0.00    -0.020 C 
ATOM     11  C   LIG    1        0.344  -5.916  -1.226  0.00  0.00    +0.020 C 
ATOM     12  C   LIG    1        1.182  -7.134  -1.687  0.00  0.00    +0.030 C 
ATOM     13  C   LIG    1        1.133  -7.066  -3.228  0.00  0.00    +0.010 C 
ATOM     14  C   LIG    1        0.841  -5.600  -3.594  0.00  0.00    +0.040 C 
ENDBRANCH   9  10
BRANCH   9  15
ATOM     15  C   LIG    1       -1.733  -4.456  -2.533  0.00  0.00    +0.060 C 
ATOM     16  C   LIG    1       -2.812  -3.399  -2.777  0.00  0.00    +0.030 C 
ENDBRANCH   9  15
ENDBRANCH   1   9
TORSDOF 6
ENDMDL
MODEL      811
REMARK  Name = ZINC000387482426
REMARK                            x       y       z     vdW  Elec       q    Type
REMARK                         _______ _______ _______ _____ _____    ______ ____
ROOT
ATOM      1  N   LIG    1       -0.740  -3.312  -1.172  0.00  0.00    -0.500 N 
ATOM      2  H   LIG    1       -0.816  -4.027  -0.465  0.00  0.00    +0.420 HD
ATOM      3  H   LIG    1        0.038  -2.707  -0.955  0.00  0.00    +0.420 HD
ENDROOT
BRANCH   1   4
ATOM      4  C   LIG    1       -1.978  -2.523  -1.206  0.00  0.00    +0.170 C 
ATOM      5  C   LIG    1       -3.175  -3.460  -1.381  0.00  0.00    +0.090 C 
BRANCH   4   6
ATOM      6  C   LIG    1       -2.125  -1.747   0.105  0.00  0.00    +0.090 C 
BRANCH   6   8
ATOM      7  C   LIG    1       -1.293   0.528   0.410  0.00  0.00    +0.090 C 
ATOM      8  C   LIG    1       -1.013  -0.737   0.219  0.00  0.00    -0.110 C 
ENDBRANCH   6   8
ENDBRANCH   4   6
ENDBRANCH   1   4
BRANCH   1   9
ATOM      9  C   LIG    1       -0.522  -3.938  -2.482  0.00  0.00    +0.170 C 
BRANCH   9  10
ATOM     10  C   LIG    1        0.338  -5.192  -2.311  0.00  0.00    -0.020 C 
ATOM     11  C   LIG    1       -0.420  -6.261  -1.486  0.00  0.00    +0.010 C 
ATOM     12  C   LIG    1        0.269  -7.579  -1.919  0.00  0.00    +0.030 C 
ATOM     13  C   LIG    1        0.537  -7.388  -3.426  0.00  0.00    +0.010 C 
ATOM     14  C   LIG    1        0.581  -5.870  -3.676  0.00  0.00    +0.040 C 
ENDBRANCH   9  10
BRANCH   9  15
ATOM     15  C   LIG    1        0.192  -2.952  -3.407  0.00  0.00    +0.050 C 
ATOM     16  C   LIG    1       -0.729  -1.764  -3.696  0.00  0.00    +0.030 C 
ENDBRANCH   9  15
ENDBRANCH   1   9
TORSDOF 6
ENDMDL
MODEL      812
REMARK  Name = ZINC000678715486
REMARK                            x       y       z     vdW  Elec       q    Type
REMARK                         _______ _______ _______ _____ _____    ______ ____
ROOT
ATOM      1  N   LIG    1        1.706  -4.295   2.181  0.00  0.00    -0.380 N 
ATOM      2  C   LIG    1        1.588  -5.154   3.367  0.00  0.00    +0.310 C 
ATOM      3  H   LIG    1        1.905  -4.865   1.372  0.00  0.00    +0.420 HD
ENDROOT
BRANCH   1   4
ATOM      4  C   LIG    1        2.797  -3.331   2.381  0.00  0.00    +0.170 C 
ATOM      5  C   LIG    1        2.562  -2.559   3.680  0.00  0.00    +0.080 C 
BRANCH   4   6
ATOM      6  C   LIG    1        4.129  -4.079   2.466  0.00  0.00    +0.050 C 
BRANCH   6   7
ATOM      7  C   LIG    1        4.425  -4.748   1.122  0.00  0.00    +0.010 C 
BRANCH   7   8
ATOM      8  C   LIG    1        5.814  -5.388   1.166  0.00  0.00    +0.060 C 
BRANCH   8  10
ATOM      9  C   LIG    1        7.188  -5.731  -0.823  0.00  0.00    +0.030 C 
ATOM     10  C   LIG    1        6.105  -6.048  -0.157  0.00  0.00    -0.070 C 
ENDBRANCH   8  10
ENDBRANCH   7   8
ENDBRANCH   6   7
ENDBRANCH   4   6
ENDBRANCH   1   4
BRANCH   1  11
ATOM     11  C   LIG    1        0.445  -3.572   1.972  0.00  0.00    +0.240 C 
BRANCH  11  12
ATOM     12  C   LIG    1       -0.661  -4.567   1.615  0.00  0.00    +0.040 C 
BRANCH  12  13
ATOM     13  C   LIG    1       -1.974  -3.814   1.398  0.00  0.00    -0.010 C 
ATOM     14  C   LIG    1       -2.417  -3.171   2.714  0.00  0.00    +0.020 C 
ATOM     15  C   LIG    1       -3.050  -4.791   0.920  0.00  0.00    +0.040 C 
ENDBRANCH  12  13
ENDBRANCH  11  12
ENDBRANCH   1  11
TORSDOF 8
ENDMDL
MODEL      813
REMARK  Name = ZINC000678715605
REMARK                            x       y       z     vdW  Elec       q    Type
REMARK                         _______ _______ _______ _____ _____    ______ ____
ROOT
ATOM      1  N   LIG    1        2.638  -2.792   3.675  0.00  0.00    -0.380 N 
ATOM      2  C   LIG    1        2.772  -3.928   4.596  0.00  0.00    +0.310 C 
ATOM      3  H   LIG    1        3.437  -2.184   3.772  0.00  0.00    +0.420 HD
ENDROOT
BRANCH   1   4
ATOM      4  C   LIG    1        2.564  -3.288   2.294  0.00  0.00    +0.160 C 
ATOM      5  C   LIG    1        1.446  -4.326   2.184  0.00  0.00    +0.080 C 
BRANCH   4   6
ATOM      6  C   LIG    1        3.898  -3.932   1.911  0.00  0.00    +0.050 C 
BRANCH   6   7
ATOM      7  C   LIG    1        4.992  -2.863   1.886  0.00  0.00    +0.000 C 
BRANCH   7   8
ATOM      8  C   LIG    1        6.341  -3.521   1.590  0.00  0.00    +0.060 C 
BRANCH   8  10
ATOM      9  C   LIG    1        8.472  -2.590   2.335  0.00  0.00    +0.020 C 
ATOM     10  C   LIG    1        7.419  -2.468   1.565  0.00  0.00    -0.060 C 
ENDBRANCH   8  10
ENDBRANCH   7   8
ENDBRANCH   6   7
ENDBRANCH   4   6
ENDBRANCH   1   4
BRANCH   1  11
ATOM     11  C   LIG    1        1.413  -2.045   3.993  0.00  0.00    +0.260 C 
BRANCH  11  12
ATOM     12  C   LIG    1        1.702  -1.048   5.117  0.00  0.00    -0.090 C 
ATOM     13  C   LIG    1        2.220  -1.799   6.345  0.00  0.00    +0.050 C 
ATOM     14  C   LIG    1        0.416  -0.302   5.480  0.00  0.00    +0.070 C 
ATOM     15  C   LIG    1        2.759  -0.045   4.650  0.00  0.00    +0.050 C 
ENDBRANCH  11  12
ENDBRANCH   1  11
TORSDOF 7
ENDMDL
MODEL      814
REMARK  Name = ZINC000678716319
REMARK                            x       y       z     vdW  Elec       q    Type
REMARK                         _______ _______ _______ _____ _____    ______ ____
ROOT
ATOM      1  N   LIG    1       -1.586  -4.316  -2.224  0.00  0.00    -0.380 N 
ATOM      2  C   LIG    1       -0.344  -3.561  -2.007  0.00  0.00    +0.310 C 
ATOM      3  H   LIG    1       -1.728  -4.956  -1.457  0.00  0.00    +0.420 HD
ENDROOT
BRANCH   1   4
ATOM      4  C   LIG    1       -2.719  -3.384  -2.302  0.00  0.00    +0.170 C 
ATOM      5  C   LIG    1       -2.578  -2.513  -3.552  0.00  0.00    +0.080 C 
BRANCH   4   6
ATOM      6  C   LIG    1       -4.026  -4.175  -2.376  0.00  0.00    +0.050 C 
BRANCH   6   7
ATOM      7  C   LIG    1       -4.229  -4.948  -1.071  0.00  0.00    +0.010 C 
BRANCH   7   8
ATOM      8  C   LIG    1       -5.596  -5.636  -1.094  0.00  0.00    +0.060 C 
BRANCH   8  10
ATOM      9  C   LIG    1       -6.854  -6.169   0.929  0.00  0.00    +0.030 C 
ATOM     10  C   LIG    1       -5.796  -6.397   0.192  0.00  0.00    -0.070 C 
ENDBRANCH   8  10
ENDBRANCH   7   8
ENDBRANCH   6   7
ENDBRANCH   4   6
ENDBRANCH   1   4
BRANCH   1  11
ATOM     11  C   LIG    1       -1.486  -5.071  -3.480  0.00  0.00    +0.240 C 
BRANCH  11  12
ATOM     12  C   LIG    1       -0.386  -6.128  -3.354  0.00  0.00    +0.040 C 
BRANCH  12  13
ATOM     13  C   LIG    1       -0.283  -6.915  -4.662  0.00  0.00    +0.070 C 
BRANCH  13  14
ATOM     14  C   LIG    1        0.800  -7.955  -4.538  0.00  0.00    -0.070 C 
ATOM     15  C   LIG    1        0.529  -9.215  -4.774  0.00  0.00    +0.030 C 
ENDBRANCH  13  14
ENDBRANCH  12  13
ENDBRANCH  11  12
ENDBRANCH   1  11
TORSDOF 9
ENDMDL
MODEL      815
REMARK  Name = ZINC000678717091
REMARK                            x       y       z     vdW  Elec       q    Type
REMARK                         _______ _______ _______ _____ _____    ______ ____
ROOT
ATOM      1  N   LIG    1       -2.620  -2.760  -3.668  0.00  0.00    -0.390 N 
ATOM      2  C   LIG    1       -1.246  -2.292  -3.895  0.00  0.00    +0.300 C 
ATOM      3  H   LIG    1       -3.260  -1.985  -3.764  0.00  0.00    +0.420 HD
ENDROOT
BRANCH   1   4
ATOM      4  C   LIG    1       -2.730  -3.320  -2.314  0.00  0.00    +0.160 C 
ATOM      5  C   LIG    1       -1.844  -4.563  -2.204  0.00  0.00    +0.090 C 
BRANCH   4   6
ATOM      6  C   LIG    1       -4.184  -3.705  -2.038  0.00  0.00    +0.050 C 
BRANCH   6   7
ATOM      7  C   LIG    1       -5.053  -2.446  -2.032  0.00  0.00    +0.010 C 
BRANCH   7   8
ATOM      8  C   LIG    1       -6.516  -2.837  -1.815  0.00  0.00    +0.060 C 
BRANCH   8  10
ATOM      9  C   LIG    1       -8.390  -1.499  -2.628  0.00  0.00    +0.020 C 
ATOM     10  C   LIG    1       -7.372  -1.596  -1.809  0.00  0.00    -0.060 C 
ENDBRANCH   8  10
ENDBRANCH   7   8
ENDBRANCH   6   7
ENDBRANCH   4   6
ENDBRANCH   1   4
BRANCH   1  11
ATOM     11  C   LIG    1       -2.955  -3.795  -4.655  0.00  0.00    +0.240 C 
BRANCH  11  12
ATOM     12  C   LIG    1       -2.942  -3.185  -6.058  0.00  0.00    -0.030 C 
ATOM     13  C   LIG    1       -3.136  -4.291  -7.097  0.00  0.00    +0.070 C 
BRANCH  12  14
ATOM     14  C   LIG    1       -4.077  -2.166  -6.181  0.00  0.00    +0.000 C 
ATOM     15  C   LIG    1       -3.989  -1.466  -7.538  0.00  0.00    +0.040 C 
ENDBRANCH  12  14
ENDBRANCH  11  12
ENDBRANCH   1  11
TORSDOF 8
ENDMDL
MODEL      816
REMARK  Name = ZINC000678717089
REMARK                            x       y       z     vdW  Elec       q    Type
REMARK                         _______ _______ _______ _____ _____    ______ ____
ROOT
ATOM      1  N   LIG    1       -2.806  -2.726  -3.726  0.00  0.00    -0.390 N 
ATOM      2  C   LIG    1       -1.520  -2.044  -3.926  0.00  0.00    +0.310 C 
ATOM      3  H   LIG    1       -3.560  -2.077  -3.889  0.00  0.00    +0.420 HD
ENDROOT
BRANCH   1   4
ATOM      4  C   LIG    1       -2.882  -3.231  -2.348  0.00  0.00    +0.160 C 
ATOM      5  C   LIG    1       -1.806  -4.297  -2.135  0.00  0.00    +0.090 C 
BRANCH   4   6
ATOM      6  C   LIG    1       -4.263  -3.845  -2.106  0.00  0.00    +0.050 C 
BRANCH   6   7
ATOM      7  C   LIG    1       -5.332  -2.757  -2.224  0.00  0.00    +0.010 C 
BRANCH   7   8
ATOM      8  C   LIG    1       -6.713  -3.372  -1.989  0.00  0.00    +0.060 C 
BRANCH   8  10
ATOM      9  C   LIG    1       -8.764  -2.449  -2.942  0.00  0.00    +0.020 C 
ATOM     10  C   LIG    1       -7.767  -2.300  -2.105  0.00  0.00    -0.060 C 
ENDBRANCH   8  10
ENDBRANCH   7   8
ENDBRANCH   6   7
ENDBRANCH   4   6
ENDBRANCH   1   4
BRANCH   1  11
ATOM     11  C   LIG    1       -2.915  -3.850  -4.666  0.00  0.00    +0.240 C 
BRANCH  11  12
ATOM     12  C   LIG    1       -2.939  -3.315  -6.099  0.00  0.00    -0.030 C 
ATOM     13  C   LIG    1       -4.206  -2.485  -6.312  0.00  0.00    +0.040 C 
BRANCH  12  14
ATOM     14  C   LIG    1       -2.928  -4.488  -7.081  0.00  0.00    +0.020 C 
ATOM     15  C   LIG    1       -2.826  -3.955  -8.512  0.00  0.00    +0.030 C 
ENDBRANCH  12  14
ENDBRANCH  11  12
ENDBRANCH   1  11
TORSDOF 8
ENDMDL
MODEL      817
REMARK  Name = ZINC000678717090
REMARK                            x       y       z     vdW  Elec       q    Type
REMARK                         _______ _______ _______ _____ _____    ______ ____
ROOT
ATOM      1  N   LIG    1       -1.586  -4.316  -2.224  0.00  0.00    -0.390 N 
ATOM      2  C   LIG    1       -1.444  -5.157  -3.420  0.00  0.00    +0.320 C 
ATOM      3  H   LIG    1       -1.769  -4.899  -1.421  0.00  0.00    +0.420 HD
ENDROOT
BRANCH   1   4
ATOM      4  C   LIG    1       -2.702  -3.380  -2.413  0.00  0.00    +0.160 C 
ATOM      5  C   LIG    1       -2.488  -2.586  -3.704  0.00  0.00    +0.090 C 
BRANCH   4   6
ATOM      6  C   LIG    1       -4.013  -4.162  -2.506  0.00  0.00    +0.050 C 
BRANCH   6   7
ATOM      7  C   LIG    1       -4.290  -4.854  -1.170  0.00  0.00    +0.010 C 
BRANCH   7   8
ATOM      8  C   LIG    1       -5.662  -5.530  -1.220  0.00  0.00    +0.060 C 
BRANCH   8  10
ATOM      9  C   LIG    1       -7.025  -5.931   0.764  0.00  0.00    +0.030 C 
ATOM     10  C   LIG    1       -5.934  -6.212   0.096  0.00  0.00    -0.070 C 
ENDBRANCH   8  10
ENDBRANCH   7   8
ENDBRANCH   6   7
ENDBRANCH   4   6
ENDBRANCH   1   4
BRANCH   1  11
ATOM     11  C   LIG    1       -0.344  -3.561  -2.007  0.00  0.00    +0.250 C 
BRANCH  11  12
ATOM     12  C   LIG    1        0.788  -4.529  -1.661  0.00  0.00    -0.030 C 
ATOM     13  C   LIG    1        0.488  -5.208  -0.323  0.00  0.00    +0.040 C 
BRANCH  12  14
ATOM     14  C   LIG    1        2.105  -3.758  -1.558  0.00  0.00    +0.020 C 
ATOM     15  C   LIG    1        3.256  -4.742  -1.335  0.00  0.00    +0.030 C 
ENDBRANCH  12  14
ENDBRANCH  11  12
ENDBRANCH   1  11
TORSDOF 8
ENDMDL
MODEL      818
REMARK  Name = ZINC000678717092
REMARK                            x       y       z     vdW  Elec       q    Type
REMARK                         _______ _______ _______ _____ _____    ______ ____
ROOT
ATOM      1  N   LIG    1       -1.567  -4.402  -2.190  0.00  0.00    -0.390 N 
ATOM      2  C   LIG    1       -1.657  -5.145  -3.454  0.00  0.00    +0.310 C 
ATOM      3  H   LIG    1       -1.549  -5.051  -1.418  0.00  0.00    +0.420 HD
ENDROOT
BRANCH   1   4
ATOM      4  C   LIG    1       -2.731  -3.515  -2.059  0.00  0.00    +0.160 C 
ATOM      5  C   LIG    1       -2.824  -2.609  -3.288  0.00  0.00    +0.090 C 
BRANCH   4   6
ATOM      6  C   LIG    1       -4.003  -4.358  -1.949  0.00  0.00    +0.050 C 
BRANCH   6   7
ATOM      7  C   LIG    1       -3.963  -5.177  -0.657  0.00  0.00    +0.010 C 
BRANCH   7   8
ATOM      8  C   LIG    1       -5.289  -5.920  -0.483  0.00  0.00    +0.060 C 
BRANCH   8  10
ATOM      9  C   LIG    1       -6.181  -6.565   1.696  0.00  0.00    +0.030 C 
ATOM     10  C   LIG    1       -5.249  -6.726   0.789  0.00  0.00    -0.070 C 
ENDBRANCH   8  10
ENDBRANCH   7   8
ENDBRANCH   6   7
ENDBRANCH   4   6
ENDBRANCH   1   4
BRANCH   1  11
ATOM     11  C   LIG    1       -0.337  -3.598  -2.182  0.00  0.00    +0.250 C 
BRANCH  11  12
ATOM     12  C   LIG    1       -0.172  -2.932  -0.814  0.00  0.00    -0.030 C 
ATOM     13  C   LIG    1        0.048  -4.007   0.253  0.00  0.00    +0.040 C 
BRANCH  12  14
ATOM     14  C   LIG    1        1.035  -1.992  -0.847  0.00  0.00    +0.020 C 
ATOM     15  C   LIG    1        1.127  -1.233   0.478  0.00  0.00    +0.030 C 
ENDBRANCH  12  14
ENDBRANCH  11  12
ENDBRANCH   1  11
TORSDOF 8
ENDMDL
MODEL      819
REMARK  Name = ZINC000162786662
REMARK                            x       y       z     vdW  Elec       q    Type
REMARK                         _______ _______ _______ _____ _____    ______ ____
ROOT
ATOM      1  N   LIG    1        2.212  -6.013  -3.799  0.00  0.00    -0.510 N 
ATOM      2  H   LIG    1        1.265  -6.362  -3.792  0.00  0.00    +0.430 HD
ATOM      3  H   LIG    1        2.700  -6.347  -2.982  0.00  0.00    +0.430 HD
ENDROOT
BRANCH   1   4
ATOM      4  C   LIG    1        2.900  -6.487  -5.008  0.00  0.00    +0.180 C 
ATOM      5  C   LIG    1        4.369  -6.062  -4.958  0.00  0.00    +0.090 C 
BRANCH   4   6
ATOM      6  C   LIG    1        2.812  -8.012  -5.080  0.00  0.00    -0.030 C 
ATOM      7  C   LIG    1        1.488  -8.526  -5.670  0.00  0.00    +0.020 C 
ATOM      8  C   LIG    1        2.320  -9.588  -6.407  0.00  0.00    +0.030 C 
ATOM      9  C   LIG    1        3.504  -8.612  -6.315  0.00  0.00    +0.050 C 
ENDBRANCH   4   6
ENDBRANCH   1   4
BRANCH   1  10
ATOM     10  C   LIG    1        2.192  -4.544  -3.791  0.00  0.00    +0.250 C 
BRANCH  10  11
ATOM     11  C   LIG    1        1.476  -4.051  -2.532  0.00  0.00    +0.030 C 
BRANCH  11  12
ATOM     12  C   LIG    1        1.455  -2.521  -2.524  0.00  0.00    +0.020 C 
BRANCH  12  13
ATOM     13  C   LIG    1        0.739  -2.027  -1.265  0.00  0.00    +0.020 C 
BRANCH  13  14
ATOM     14  C   LIG    1        0.718  -0.497  -1.257  0.00  0.00    +0.000 C 
BRANCH  14  16
ATOM     15  C   LIG    1       -0.019   1.526   0.010  0.00  0.00    +0.000 C 
ATOM     16  C   LIG    1        0.002  -0.004   0.002  0.00  0.00    -0.010 C 
ENDBRANCH  14  16
ENDBRANCH  13  14
ENDBRANCH  12  13
ENDBRANCH  11  12
ENDBRANCH  10  11
ENDBRANCH   1  10
TORSDOF 8
ENDMDL
MODEL      820
REMARK  Name = ZINC000162786785
REMARK                            x       y       z     vdW  Elec       q    Type
REMARK                         _______ _______ _______ _____ _____    ______ ____
ROOT
ATOM      1  N   LIG    1        1.907  -6.317  -3.938  0.00  0.00    -0.510 N 
ATOM      2  H   LIG    1        1.053  -6.789  -4.193  0.00  0.00    +0.430 HD
ATOM      3  H   LIG    1        2.266  -6.710  -3.081  0.00  0.00    +0.430 HD
ENDROOT
BRANCH   1   4
ATOM      4  C   LIG    1        2.900  -6.487  -5.008  0.00  0.00    +0.170 C 
ATOM      5  C   LIG    1        2.308  -6.003  -6.333  0.00  0.00    +0.090 C 
BRANCH   4   6
ATOM      6  C   LIG    1        3.275  -7.965  -5.126  0.00  0.00    -0.020 C 
ATOM      7  C   LIG    1        4.583  -8.209  -5.896  0.00  0.00    +0.040 C 
ATOM      8  C   LIG    1        4.902  -9.294  -4.854  0.00  0.00    +0.030 C 
ATOM      9  C   LIG    1        3.994  -8.519  -3.885  0.00  0.00    +0.010 C 
ENDBRANCH   4   6
ENDBRANCH   1   4
BRANCH   1  10
ATOM     10  C   LIG    1        1.637  -4.886  -3.744  0.00  0.00    +0.250 C 
BRANCH  10  11
ATOM     11  C   LIG    1        0.603  -4.709  -2.629  0.00  0.00    +0.030 C 
BRANCH  11  12
ATOM     12  C   LIG    1        0.321  -3.219  -2.427  0.00  0.00    +0.020 C 
BRANCH  12  13
ATOM     13  C   LIG    1       -0.712  -3.042  -1.313  0.00  0.00    +0.020 C 
BRANCH  13  14
ATOM     14  C   LIG    1       -0.994  -1.552  -1.111  0.00  0.00    +0.000 C 
BRANCH  14  16
ATOM     15  C   LIG    1       -2.309   0.115   0.206  0.00  0.00    +0.000 C 
ATOM     16  C   LIG    1       -2.027  -1.375   0.004  0.00  0.00    -0.010 C 
ENDBRANCH  14  16
ENDBRANCH  13  14
ENDBRANCH  12  13
ENDBRANCH  11  12
ENDBRANCH  10  11
ENDBRANCH   1  10
TORSDOF 8
ENDMDL
MODEL      821
REMARK  Name = ZINC000161658796
REMARK                            x       y       z     vdW  Elec       q    Type
REMARK                         _______ _______ _______ _____ _____    ______ ____
ROOT
ATOM      1  N   LIG    1       -0.214  -2.760  -0.793  0.00  0.00    -0.510 N 
ATOM      2  H   LIG    1       -1.113  -2.312  -0.696  0.00  0.00    +0.420 HD
ATOM      3  H   LIG    1       -0.075  -3.404  -0.028  0.00  0.00    +0.420 HD
ENDROOT
BRANCH   1   4
ATOM      4  C   LIG    1        0.845  -1.742  -0.774  0.00  0.00    +0.160 C 
ATOM      5  C   LIG    1        0.545  -0.674  -1.828  0.00  0.00    +0.090 C 
BRANCH   4   6
ATOM      6  C   LIG    1        0.903  -1.091   0.609  0.00  0.00    +0.090 C 
BRANCH   6   8
ATOM      7  C   LIG    1        2.354  -1.893   2.401  0.00  0.00    +0.090 C 
ATOM      8  C   LIG    1        1.319  -2.118   1.631  0.00  0.00    -0.110 C 
ENDBRANCH   6   8
ENDBRANCH   4   6
ENDBRANCH   1   4
BRANCH   1   9
ATOM      9  C   LIG    1       -0.167  -3.493  -2.065  0.00  0.00    +0.160 C 
BRANCH   9  10
ATOM     10  C   LIG    1       -1.566  -4.006  -2.410  0.00  0.00    +0.050 C 
ATOM     11  C   LIG    1       -2.493  -2.819  -2.679  0.00  0.00    +0.030 C 
ENDBRANCH   9  10
BRANCH   9  12
ATOM     12  C   LIG    1        0.793  -4.677  -1.936  0.00  0.00    +0.060 C 
BRANCH  12  13
ATOM     13  C   LIG    1        2.219  -4.158  -1.740  0.00  0.00    +0.010 C 
BRANCH  13  14
ATOM     14  C   LIG    1        3.189  -5.340  -1.681  0.00  0.00    +0.010 C 
ATOM     15  C   LIG    1        4.615  -4.821  -1.485  0.00  0.00    +0.010 C 
ENDBRANCH  13  14
ENDBRANCH  12  13
ENDBRANCH   9  12
ENDBRANCH   1   9
TORSDOF 8
ENDMDL
MODEL      822
REMARK  Name = ZINC000161678093
REMARK                            x       y       z     vdW  Elec       q    Type
REMARK                         _______ _______ _______ _____ _____    ______ ____
ROOT
ATOM      1  N   LIG    1       -1.330  -0.975  -2.430  0.00  0.00    -0.510 N 
ATOM      2  H   LIG    1       -0.545  -0.341  -2.445  0.00  0.00    +0.420 HD
ATOM      3  H   LIG    1       -2.189  -0.449  -2.495  0.00  0.00    +0.420 HD
ENDROOT
BRANCH   1   4
ATOM      4  C   LIG    1       -1.319  -1.741  -1.176  0.00  0.00    +0.170 C 
ATOM      5  C   LIG    1       -2.575  -2.611  -1.099  0.00  0.00    +0.090 C 
BRANCH   4   6
ATOM      6  C   LIG    1       -1.293  -0.775   0.010  0.00  0.00    +0.100 C 
BRANCH   6   8
ATOM      7  C   LIG    1       -0.016   1.306   0.009  0.00  0.00    +0.060 C 
ATOM      8  C   LIG    1        0.002  -0.004   0.002  0.00  0.00    -0.090 C 
ENDBRANCH   6   8
ENDBRANCH   4   6
ENDBRANCH   1   4
BRANCH   1   9
ATOM      9  C   LIG    1       -1.234  -1.899  -3.569  0.00  0.00    +0.160 C 
ATOM     10  C   LIG    1        0.122  -2.606  -3.539  0.00  0.00    +0.090 C 
BRANCH   9  11
ATOM     11  C   LIG    1       -1.372  -1.114  -4.875  0.00  0.00    +0.050 C 
BRANCH  11  12
ATOM     12  C   LIG    1       -2.774  -0.509  -4.961  0.00  0.00    +0.010 C 
BRANCH  12  13
ATOM     13  C   LIG    1       -2.912   0.276  -6.268  0.00  0.00    +0.020 C 
BRANCH  13  14
ATOM     14  C   LIG    1       -4.314   0.881  -6.354  0.00  0.00    -0.010 C 
ATOM     15  C   LIG    1       -4.451   1.665  -7.660  0.00  0.00    +0.020 C 
ENDBRANCH  13  14
ENDBRANCH  12  13
ENDBRANCH  11  12
ENDBRANCH   9  11
ENDBRANCH   1   9
TORSDOF 8
ENDMDL
MODEL      823
REMARK  Name = ZINC000157296094
REMARK                            x       y       z     vdW  Elec       q    Type
REMARK                         _______ _______ _______ _____ _____    ______ ____
ROOT
ATOM      1  C   LIG    1        2.747  -2.214   1.225  0.00  0.00    +0.160 C 
ATOM      2  C   LIG    1        3.813  -1.132   1.408  0.00  0.00    +0.090 C 
ENDROOT
BRANCH   1   3
ATOM      3  N   LIG    1        1.418  -1.590   1.179  0.00  0.00    -0.510 N 
ATOM      4  H   LIG    1        0.710  -2.308   1.142  0.00  0.00    +0.420 HD
ATOM      5  H   LIG    1        1.282  -1.026   2.006  0.00  0.00    +0.430 HD
BRANCH   3   6
ATOM      6  C   LIG    1        1.317  -0.740  -0.015  0.00  0.00    +0.200 C 
ATOM      7  C   LIG    1        1.398  -1.611  -1.269  0.00  0.00    +0.090 C 
BRANCH   6   9
ATOM      8  C   LIG    1       -0.016   1.306   0.009  0.00  0.00    +0.130 C 
ATOM      9  C   LIG    1        0.002  -0.004   0.002  0.00  0.00    -0.090 C 
ENDBRANCH   6   9
ENDBRANCH   3   6
ENDBRANCH   1   3
BRANCH   1  10
ATOM     10  C   LIG    1        2.809  -3.195   2.398  0.00  0.00    +0.050 C 
BRANCH  10  11
ATOM     11  C   LIG    1        1.830  -4.344   2.155  0.00  0.00    +0.010 C 
BRANCH  11  12
ATOM     12  C   LIG    1        1.892  -5.325   3.328  0.00  0.00    +0.020 C 
BRANCH  12  13
ATOM     13  C   LIG    1        0.913  -6.474   3.084  0.00  0.00    +0.000 C 
BRANCH  13  14
ATOM     14  C   LIG    1        0.976  -7.455   4.257  0.00  0.00    -0.010 C 
ATOM     15  C   LIG    1       -0.004  -8.605   4.014  0.00  0.00    +0.000 C 
ENDBRANCH  13  14
ENDBRANCH  12  13
ENDBRANCH  11  12
ENDBRANCH  10  11
ENDBRANCH   1  10
TORSDOF 8
ENDMDL
MODEL      824
REMARK  Name = ZINC000157296381
REMARK                            x       y       z     vdW  Elec       q    Type
REMARK                         _______ _______ _______ _____ _____    ______ ____
ROOT
ATOM      1  C   LIG    1        2.728  -2.201  -1.299  0.00  0.00    +0.160 C 
ATOM      2  C   LIG    1        2.667  -3.343  -0.283  0.00  0.00    +0.090 C 
ENDROOT
BRANCH   1   3
ATOM      3  N   LIG    1        1.446  -1.484  -1.308  0.00  0.00    -0.510 N 
ATOM      4  H   LIG    1        1.451  -0.795  -2.045  0.00  0.00    +0.420 HD
ATOM      5  H   LIG    1        0.696  -2.139  -1.464  0.00  0.00    +0.430 HD
BRANCH   3   6
ATOM      6  C   LIG    1        1.251  -0.815  -0.014  0.00  0.00    +0.200 C 
ATOM      7  C   LIG    1       -0.142  -0.184   0.029  0.00  0.00    +0.090 C 
BRANCH   6   9
ATOM      8  C   LIG    1        3.189   0.154   1.110  0.00  0.00    +0.120 C 
ATOM      9  C   LIG    1        2.294   0.258   0.160  0.00  0.00    -0.090 C 
ENDBRANCH   6   9
ENDBRANCH   3   6
ENDBRANCH   1   3
BRANCH   1  10
ATOM     10  C   LIG    1        3.003  -2.771  -2.692  0.00  0.00    +0.050 C 
BRANCH  10  11
ATOM     11  C   LIG    1        3.188  -1.623  -3.686  0.00  0.00    +0.010 C 
BRANCH  11  12
ATOM     12  C   LIG    1        3.462  -2.193  -5.079  0.00  0.00    +0.020 C 
BRANCH  12  13
ATOM     13  C   LIG    1        3.647  -1.045  -6.073  0.00  0.00    +0.000 C 
BRANCH  13  14
ATOM     14  C   LIG    1        3.921  -1.616  -7.466  0.00  0.00    -0.010 C 
ATOM     15  C   LIG    1        4.106  -0.468  -8.460  0.00  0.00    +0.000 C 
ENDBRANCH  13  14
ENDBRANCH  12  13
ENDBRANCH  11  12
ENDBRANCH  10  11
ENDBRANCH   1  10
TORSDOF 8
ENDMDL
MODEL      825
REMARK  Name = ZINC000157296251
REMARK                            x       y       z     vdW  Elec       q    Type
REMARK                         _______ _______ _______ _____ _____    ______ ____
ROOT
ATOM      1  C   LIG    1        2.777  -2.102  -1.344  0.00  0.00    +0.160 C 
ATOM      2  C   LIG    1        3.846  -1.010  -1.406  0.00  0.00    +0.090 C 
ENDROOT
BRANCH   1   3
ATOM      3  N   LIG    1        1.447  -1.483  -1.275  0.00  0.00    -0.510 N 
ATOM      4  H   LIG    1        1.330  -0.850  -2.052  0.00  0.00    +0.430 HD
ATOM      5  H   LIG    1        0.739  -2.201  -1.317  0.00  0.00    +0.420 HD
BRANCH   3   6
ATOM      6  C   LIG    1        1.317  -0.740  -0.015  0.00  0.00    +0.200 C 
ATOM      7  C   LIG    1        1.370  -1.717   1.161  0.00  0.00    +0.090 C 
BRANCH   6   9
ATOM      8  C   LIG    1       -0.016   1.306   0.009  0.00  0.00    +0.130 C 
ATOM      9  C   LIG    1        0.002  -0.004   0.002  0.00  0.00    -0.090 C 
ENDBRANCH   6   9
ENDBRANCH   3   6
ENDBRANCH   1   3
BRANCH   1  10
ATOM     10  C   LIG    1        2.868  -2.977  -2.595  0.00  0.00    +0.050 C 
BRANCH  10  11
ATOM     11  C   LIG    1        1.884  -4.143  -2.476  0.00  0.00    +0.010 C 
BRANCH  11  12
ATOM     12  C   LIG    1        1.976  -5.018  -3.728  0.00  0.00    +0.020 C 
BRANCH  12  13
ATOM     13  C   LIG    1        0.992  -6.184  -3.608  0.00  0.00    +0.000 C 
BRANCH  13  14
ATOM     14  C   LIG    1        1.083  -7.059  -4.860  0.00  0.00    -0.010 C 
ATOM     15  C   LIG    1        0.099  -8.224  -4.740  0.00  0.00    +0.000 C 
ENDBRANCH  13  14
ENDBRANCH  12  13
ENDBRANCH  11  12
ENDBRANCH  10  11
ENDBRANCH   1  10
TORSDOF 8
ENDMDL
MODEL      826
REMARK  Name = ZINC000059114897
REMARK                            x       y       z     vdW  Elec       q    Type
REMARK                         _______ _______ _______ _____ _____    ______ ____
ROOT
ATOM      1  C   LIG    1        2.326  -6.034   3.845  0.00  0.00    +0.160 C 
ATOM      2  C   LIG    1        2.917  -6.320   5.227  0.00  0.00    +0.090 C 
ENDROOT
BRANCH   1   3
ATOM      3  N   LIG    1        0.951  -6.549   3.784  0.00  0.00    -0.510 N 
ATOM      4  H   LIG    1        0.530  -6.279   2.908  0.00  0.00    +0.420 HD
ATOM      5  H   LIG    1        0.415  -6.165   4.548  0.00  0.00    +0.430 HD
BRANCH   3   6
ATOM      6  C   LIG    1        0.972  -8.014   3.887  0.00  0.00    +0.160 C 
ATOM      7  C   LIG    1        1.651  -8.603   2.650  0.00  0.00    +0.090 C 
ATOM      8  C   LIG    1       -0.462  -8.539   3.980  0.00  0.00    +0.090 C 
ENDBRANCH   3   6
ENDBRANCH   1   3
BRANCH   1   9
ATOM      9  C   LIG    1        2.317  -4.525   3.596  0.00  0.00    +0.050 C 
BRANCH   9  10
ATOM     10  C   LIG    1        1.843  -4.246   2.168  0.00  0.00    +0.010 C 
BRANCH  10  11
ATOM     11  C   LIG    1        1.834  -2.736   1.919  0.00  0.00    +0.020 C 
BRANCH  11  12
ATOM     12  C   LIG    1        1.360  -2.458   0.492  0.00  0.00    +0.000 C 
BRANCH  12  13
ATOM     13  C   LIG    1        1.351  -0.948   0.243  0.00  0.00    +0.000 C 
BRANCH  13  15
ATOM     14  C   LIG    1        0.869   0.840  -1.434  0.00  0.00    +0.000 C 
ATOM     15  C   LIG    1        0.877  -0.669  -1.185  0.00  0.00    -0.010 C 
ENDBRANCH  13  15
ENDBRANCH  12  13
ENDBRANCH  11  12
ENDBRANCH  10  11
ENDBRANCH   9  10
ENDBRANCH   1   9
TORSDOF 8
ENDMDL
MODEL      827
REMARK  Name = ZINC000605149761
REMARK                            x       y       z     vdW  Elec       q    Type
REMARK                         _______ _______ _______ _____ _____    ______ ____
ROOT
ATOM      1  N   LIG    1        2.855  -3.417   2.415  0.00  0.00    -0.390 N 
ATOM      2  H   LIG    1        2.661  -3.133   3.363  0.00  0.00    +0.420 HD
ENDROOT
BRANCH   1   3
ATOM      3  C   LIG    1        2.740  -2.256   1.522  0.00  0.00    +0.250 C 
BRANCH   3   4
ATOM      4  C   LIG    1        1.362  -1.614   1.696  0.00  0.00    +0.040 C 
BRANCH   4   5
ATOM      5  C   LIG    1        1.241  -0.405   0.767  0.00  0.00    +0.070 C 
BRANCH   5   7
ATOM      6  C   LIG    1       -0.213   1.500   1.237  0.00  0.00    +0.030 C 
ATOM      7  C   LIG    1       -0.116   0.228   0.939  0.00  0.00    -0.070 C 
ENDBRANCH   5   7
ENDBRANCH   4   5
ENDBRANCH   3   4
ENDBRANCH   1   3
BRANCH   1   8
ATOM      8  C   LIG    1        4.218  -3.961   2.336  0.00  0.00    +0.250 C 
BRANCH   8   9
ATOM      9  C   LIG    1        5.209  -2.935   2.888  0.00  0.00    +0.030 C 
BRANCH   9  10
ATOM     10  C   LIG    1        6.614  -3.542   2.907  0.00  0.00    +0.020 C 
ATOM     11  C   LIG    1        7.605  -2.516   3.458  0.00  0.00    +0.030 C 
ENDBRANCH   9  10
ENDBRANCH   8   9
ENDBRANCH   1   8
BRANCH   1  12
ATOM     12  C   LIG    1        1.892  -4.447   2.005  0.00  0.00    +0.240 C 
BRANCH  12  13
ATOM     13  C   LIG    1        1.897  -5.586   3.027  0.00  0.00    +0.030 C 
BRANCH  13  14
ATOM     14  C   LIG    1        0.928  -6.681   2.576  0.00  0.00    +0.020 C 
ATOM     15  C   LIG    1        0.933  -7.819   3.598  0.00  0.00    +0.030 C 
ENDBRANCH  13  14
ENDBRANCH  12  13
ENDBRANCH   1  12
TORSDOF 10
ENDMDL
MODEL      828
REMARK  Name = ZINC000605149765
REMARK                            x       y       z     vdW  Elec       q    Type
REMARK                         _______ _______ _______ _____ _____    ______ ____
ROOT
ATOM      1  N   LIG    1        2.755  -3.402   2.274  0.00  0.00    -0.380 N 
ATOM      2  C   LIG    1        1.726  -4.445   2.170  0.00  0.00    +0.320 C 
ATOM      3  H   LIG    1        2.658  -2.920   3.155  0.00  0.00    +0.420 HD
ENDROOT
BRANCH   1   4
ATOM      4  C   LIG    1        4.086  -4.019   2.197  0.00  0.00    +0.170 C 
ATOM      5  C   LIG    1        5.141  -2.978   2.458  0.00  0.00    +0.020 C 
ATOM      6  C   LIG    1        6.427  -3.226   1.647  0.00  0.00    +0.030 C 
ATOM      7  C   LIG    1        6.832  -4.712   1.608  0.00  0.00    +0.000 C 
ATOM      8  C   LIG    1        6.664  -5.389   2.941  0.00  0.00    +0.020 C 
ATOM      9  C   LIG    1        5.278  -6.064   2.976  0.00  0.00    +0.020 C 
ATOM     10  C   LIG    1        4.209  -5.121   3.270  0.00  0.00    +0.050 C 
ENDBRANCH   1   4
BRANCH   1  11
ATOM     11  C   LIG    1        2.595  -2.445   1.171  0.00  0.00    +0.240 C 
BRANCH  11  12
ATOM     12  C   LIG    1        1.273  -1.693   1.336  0.00  0.00    +0.040 C 
BRANCH  12  13
ATOM     13  C   LIG    1        1.106  -0.696   0.188  0.00  0.00    +0.070 C 
BRANCH  13  15
ATOM     14  C   LIG    1       -0.206   1.354   0.381  0.00  0.00    +0.030 C 
ATOM     15  C   LIG    1       -0.196   0.044   0.350  0.00  0.00    -0.070 C 
ENDBRANCH  13  15
ENDBRANCH  12  13
ENDBRANCH  11  12
ENDBRANCH   1  11
TORSDOF 5
ENDMDL
MODEL      829
REMARK  Name = ZINC000605149834
REMARK                            x       y       z     vdW  Elec       q    Type
REMARK                         _______ _______ _______ _____ _____    ______ ____
ROOT
ATOM      1  N   LIG    1        2.416  -4.118   3.041  0.00  0.00    -0.380 N 
ATOM      2  H   LIG    1        1.514  -4.518   3.251  0.00  0.00    +0.420 HD
ENDROOT
BRANCH   1   3
ATOM      3  C   LIG    1        2.451  -2.722   3.495  0.00  0.00    +0.160 C 
ATOM      4  C   LIG    1        1.223  -1.981   2.961  0.00  0.00    +0.090 C 
ATOM      5  C   LIG    1        3.720  -2.047   2.972  0.00  0.00    +0.090 C 
ENDBRANCH   1   3
BRANCH   1   6
ATOM      6  C   LIG    1        2.648  -4.168   1.592  0.00  0.00    +0.250 C 
BRANCH   6   7
ATOM      7  C   LIG    1        1.365  -3.776   0.856  0.00  0.00    +0.020 C 
BRANCH   7   8
ATOM      8  C   LIG    1        1.536  -4.038  -0.642  0.00  0.00    +0.070 C 
BRANCH   8  10
ATOM      9  C   LIG    1        0.322  -2.799  -2.360  0.00  0.00    +0.030 C 
ATOM     10  C   LIG    1        0.272  -3.652  -1.367  0.00  0.00    -0.070 C 
ENDBRANCH   8  10
ENDBRANCH   7   8
ENDBRANCH   6   7
ENDBRANCH   1   6
BRANCH   1  11
ATOM     11  C   LIG    1        3.463  -4.883   3.731  0.00  0.00    +0.250 C 
BRANCH  11  12
ATOM     12  C   LIG    1        3.171  -4.908   5.233  0.00  0.00    +0.030 C 
BRANCH  12  13
ATOM     13  C   LIG    1        4.289  -5.660   5.958  0.00  0.00    +0.020 C 
BRANCH  13  14
ATOM     14  C   LIG    1        3.997  -5.684   7.460  0.00  0.00    +0.000 C 
ATOM     15  C   LIG    1        5.115  -6.436   8.185  0.00  0.00    +0.020 C 
ENDBRANCH  13  14
ENDBRANCH  12  13
ENDBRANCH  11  12
ENDBRANCH   1  11
TORSDOF 9
ENDMDL
MODEL      830
REMARK  Name = ZINC000605150086
REMARK                            x       y       z     vdW  Elec       q    Type
REMARK                         _______ _______ _______ _____ _____    ______ ____
ROOT
ATOM      1  N   LIG    1        2.493  -4.770   2.588  0.00  0.00    -0.350 N 
ATOM      2  H   LIG    1        1.976  -5.611   2.378  0.00  0.00    +0.420 HD
ENDROOT
BRANCH   1   3
ATOM      3  C   LIG    1        2.321  -4.431   4.007  0.00  0.00    +0.100 C 
ATOM      4  C   LIG    1        1.451  -5.362   4.855  0.00  0.00    +0.090 C 
ATOM      5  C   LIG    1        2.970  -5.357   5.038  0.00  0.00    +0.090 C 
ENDBRANCH   1   3
BRANCH   1   6
ATOM      6  C   LIG    1        1.991  -3.667   1.757  0.00  0.00    +0.240 C 
BRANCH   6   7
ATOM      7  C   LIG    1        0.475  -3.550   1.926  0.00  0.00    +0.030 C 
BRANCH   7   8
ATOM      8  C   LIG    1       -0.047  -2.401   1.061  0.00  0.00    +0.070 C 
BRANCH   8  10
ATOM      9  C   LIG    1       -2.072  -1.145   1.591  0.00  0.00    +0.030 C 
ATOM     10  C   LIG    1       -1.540  -2.285   1.227  0.00  0.00    -0.070 C 
ENDBRANCH   8  10
ENDBRANCH   7   8
ENDBRANCH   6   7
ENDBRANCH   1   6
BRANCH   1  11
ATOM     11  C   LIG    1        3.918  -4.987   2.306  0.00  0.00    +0.160 C 
BRANCH  11  12
ATOM     12  C   LIG    1        4.673  -3.664   2.445  0.00  0.00    +0.050 C 
ATOM     13  C   LIG    1        4.737  -3.266   3.921  0.00  0.00    +0.030 C 
ENDBRANCH  11  12
BRANCH  11  14
ATOM     14  C   LIG    1        4.080  -5.520   0.880  0.00  0.00    +0.050 C 
ATOM     15  C   LIG    1        3.420  -6.896   0.772  0.00  0.00    +0.030 C 
ENDBRANCH  11  14
ENDBRANCH   1  11
TORSDOF 8
ENDMDL
MODEL      831
REMARK  Name = ZINC000605149767
REMARK                            x       y       z     vdW  Elec       q    Type
REMARK                         _______ _______ _______ _____ _____    ______ ____
ROOT
ATOM      1  N   LIG    1        2.544  -3.259   2.409  0.00  0.00    -0.380 N 
ATOM      2  H   LIG    1        2.224  -2.932   3.308  0.00  0.00    +0.420 HD
ENDROOT
BRANCH   1   3
ATOM      3  C   LIG    1        3.964  -3.625   2.497  0.00  0.00    +0.160 C 
ATOM      4  C   LIG    1        4.484  -3.989   1.105  0.00  0.00    +0.040 C 
ATOM      5  C   LIG    1        5.963  -4.370   1.197  0.00  0.00    +0.030 C 
ATOM      6  C   LIG    1        6.761  -3.186   1.746  0.00  0.00    +0.020 C 
ATOM      7  C   LIG    1        6.241  -2.821   3.138  0.00  0.00    +0.030 C 
ATOM      8  C   LIG    1        4.762  -2.441   3.046  0.00  0.00    +0.040 C 
ENDBRANCH   1   3
BRANCH   1   9
ATOM      9  C   LIG    1        1.760  -4.434   2.007  0.00  0.00    +0.240 C 
ATOM     10  C   LIG    1        1.819  -5.489   3.114  0.00  0.00    +0.080 C 
ENDBRANCH   1   9
BRANCH   1  11
ATOM     11  C   LIG    1        2.374  -2.193   1.412  0.00  0.00    +0.240 C 
BRANCH  11  12
ATOM     12  C   LIG    1        0.917  -1.726   1.409  0.00  0.00    +0.040 C 
BRANCH  12  13
ATOM     13  C   LIG    1        0.740  -0.616   0.371  0.00  0.00    +0.070 C 
BRANCH  13  15
ATOM     14  C   LIG    1       -0.977   1.111   0.545  0.00  0.00    +0.030 C 
ATOM     15  C   LIG    1       -0.696  -0.156   0.368  0.00  0.00    -0.070 C 
ENDBRANCH  13  15
ENDBRANCH  12  13
ENDBRANCH  11  12
ENDBRANCH   1  11
TORSDOF 6
ENDMDL
MODEL      832
REMARK  Name = ZINC000605150343
REMARK                            x       y       z     vdW  Elec       q    Type
REMARK                         _______ _______ _______ _____ _____    ______ ____
ROOT
ATOM      1  N   LIG    1        2.274  -3.024   2.431  0.00  0.00    -0.380 N 
ATOM      2  H   LIG    1        1.718  -2.580   3.146  0.00  0.00    +0.420 HD
ENDROOT
BRANCH   1   3
ATOM      3  C   LIG    1        3.680  -3.059   2.854  0.00  0.00    +0.150 C 
ATOM      4  C   LIG    1        4.217  -1.622   3.070  0.00  0.00    +0.040 C 
ATOM      5  C   LIG    1        5.399  -1.842   4.046  0.00  0.00    +0.050 C 
ATOM      6  C   LIG    1        4.903  -2.950   4.998  0.00  0.00    +0.030 C 
ATOM      7  C   LIG    1        3.810  -3.723   4.240  0.00  0.00    +0.050 C 
ENDBRANCH   1   3
BRANCH   1   8
ATOM      8  C   LIG    1        1.793  -4.395   2.217  0.00  0.00    +0.160 C 
ATOM      9  C   LIG    1        1.727  -5.128   3.559  0.00  0.00    +0.090 C 
ATOM     10  C   LIG    1        2.752  -5.132   1.280  0.00  0.00    +0.080 C 
ENDBRANCH   1   8
BRANCH   1  11
ATOM     11  C   LIG    1        2.158  -2.264   1.179  0.00  0.00    +0.240 C 
BRANCH  11  12
ATOM     12  C   LIG    1        0.686  -2.176   0.770  0.00  0.00    +0.040 C 
BRANCH  12  13
ATOM     13  C   LIG    1        0.550  -1.270  -0.455  0.00  0.00    +0.070 C 
BRANCH  13  15
ATOM     14  C   LIG    1       -1.480  -0.015  -0.968  0.00  0.00    +0.030 C 
ATOM     15  C   LIG    1       -0.899  -1.184  -0.859  0.00  0.00    -0.070 C 
ENDBRANCH  13  15
ENDBRANCH  12  13
ENDBRANCH  11  12
ENDBRANCH   1  11
TORSDOF 6
ENDMDL
MODEL      833
REMARK  Name = ZINC000605150966
REMARK                            x       y       z     vdW  Elec       q    Type
REMARK                         _______ _______ _______ _____ _____    ______ ____
ROOT
ATOM      1  N   LIG    1       -2.540  -3.298  -2.362  0.00  0.00    -0.390 N 
ATOM      2  H   LIG    1       -2.291  -3.114  -3.323  0.00  0.00    +0.420 HD
ENDROOT
BRANCH   1   3
ATOM      3  C   LIG    1       -1.476  -4.084  -1.724  0.00  0.00    +0.240 C 
ATOM      4  C   LIG    1       -1.208  -5.344  -2.549  0.00  0.00    +0.080 C 
ENDBRANCH   1   3
BRANCH   1   5
ATOM      5  C   LIG    1       -2.705  -2.026  -1.647  0.00  0.00    +0.240 C 
BRANCH   5   6
ATOM      6  C   LIG    1       -1.435  -1.187  -1.798  0.00  0.00    +0.040 C 
BRANCH   6   7
ATOM      7  C   LIG    1       -1.608   0.138  -1.052  0.00  0.00    +0.070 C 
BRANCH   7   9
ATOM      8  C   LIG    1       -0.429   2.183  -1.676  0.00  0.00    +0.030 C 
ATOM      9  C   LIG    1       -0.356   0.965  -1.201  0.00  0.00    -0.070 C 
ENDBRANCH   7   9
ENDBRANCH   6   7
ENDBRANCH   5   6
ENDBRANCH   1   5
BRANCH   1  10
ATOM     10  C   LIG    1       -3.800  -4.052  -2.319  0.00  0.00    +0.240 C 
BRANCH  10  11
ATOM     11  C   LIG    1       -4.874  -3.295  -3.103  0.00  0.00    -0.020 C 
BRANCH  11  12
ATOM     12  C   LIG    1       -6.218  -4.009  -2.944  0.00  0.00    +0.040 C 
ATOM     13  C   LIG    1       -6.662  -3.942  -1.481  0.00  0.00    +0.020 C 
ENDBRANCH  11  12
BRANCH  11  14
ATOM     14  C   LIG    1       -4.491  -3.254  -4.583  0.00  0.00    +0.000 C 
ATOM     15  C   LIG    1       -5.498  -2.392  -5.347  0.00  0.00    +0.040 C 
ENDBRANCH  11  14
ENDBRANCH  10  11
ENDBRANCH   1  10
TORSDOF 9
ENDMDL
MODEL      834
REMARK  Name = ZINC000394213079
REMARK                            x       y       z     vdW  Elec       q    Type
REMARK                         _______ _______ _______ _____ _____    ______ ____
ROOT
ATOM      1  N   LIG    1        1.384  -0.995   2.581  0.00  0.00    -0.500 N 
ATOM      2  H   LIG    1        0.575  -0.392   2.595  0.00  0.00    +0.420 HD
ATOM      3  H   LIG    1        2.212  -0.451   2.773  0.00  0.00    +0.420 HD
ENDROOT
BRANCH   1   4
ATOM      4  C   LIG    1        1.235  -2.038   3.604  0.00  0.00    +0.150 C 
ATOM      5  C   LIG    1        2.480  -2.928   3.611  0.00  0.00    +0.080 C 
BRANCH   4   6
ATOM      6  C   LIG    1        1.068  -1.385   4.978  0.00  0.00    +0.070 C 
BRANCH   6   7
ATOM      7  C   LIG    1       -0.242  -0.595   5.011  0.00  0.00    -0.050 C 
ATOM      8  C   LIG    1       -1.459  -1.438   5.428  0.00  0.00    +0.020 C 
ATOM      9  C   LIG    1       -1.926  -0.219   6.241  0.00  0.00    +0.010 C 
ATOM     10  C   LIG    1       -0.449   0.202   6.309  0.00  0.00    +0.030 C 
ENDBRANCH   6   7
ENDBRANCH   4   6
ENDBRANCH   1   4
BRANCH   1  11
ATOM     11  C   LIG    1        1.506  -1.621   1.258  0.00  0.00    +0.160 C 
BRANCH  11  12
ATOM     12  C   LIG    1        1.945  -0.571   0.235  0.00  0.00    +0.050 C 
ATOM     13  C   LIG    1        3.331  -0.043   0.609  0.00  0.00    +0.040 C 
ENDBRANCH  11  12
BRANCH  11  14
ATOM     14  C   LIG    1        0.154  -2.204   0.843  0.00  0.00    +0.100 C 
BRANCH  14  16
ATOM     15  C   LIG    1       -1.325  -3.434   2.345  0.00  0.00    +0.060 C 
ATOM     16  C   LIG    1       -0.175  -3.384   1.720  0.00  0.00    -0.060 C 
ENDBRANCH  14  16
ENDBRANCH  11  14
ENDBRANCH   1  11
TORSDOF 7
ENDMDL
MODEL      835
REMARK  Name = ZINC000394213082
REMARK                            x       y       z     vdW  Elec       q    Type
REMARK                         _______ _______ _______ _____ _____    ______ ____
ROOT
ATOM      1  N   LIG    1        0.308  -2.725   0.637  0.00  0.00    -0.500 N 
ATOM      2  H   LIG    1        0.501  -3.142  -0.262  0.00  0.00    +0.420 HD
ATOM      3  H   LIG    1       -0.558  -2.210   0.589  0.00  0.00    +0.420 HD
ENDROOT
BRANCH   1   4
ATOM      4  C   LIG    1        0.194  -3.781   1.652  0.00  0.00    +0.160 C 
ATOM      5  C   LIG    1        1.507  -4.563   1.724  0.00  0.00    +0.100 C 
BRANCH   4   6
ATOM      6  C   LIG    1       -0.945  -4.731   1.275  0.00  0.00    +0.060 C 
BRANCH   6   7
ATOM      7  C   LIG    1       -2.275  -3.977   1.324  0.00  0.00    -0.040 C 
ATOM      8  C   LIG    1       -2.630  -3.266   0.007  0.00  0.00    +0.000 C 
ATOM      9  C   LIG    1       -4.080  -3.718   0.246  0.00  0.00    +0.030 C 
ATOM     10  C   LIG    1       -3.501  -4.873   1.079  0.00  0.00    +0.040 C 
ENDBRANCH   6   7
ENDBRANCH   4   6
ENDBRANCH   1   4
BRANCH   1  11
ATOM     11  C   LIG    1        1.401  -1.813   0.999  0.00  0.00    +0.160 C 
BRANCH  11  12
ATOM     12  C   LIG    1        1.657  -0.841  -0.154  0.00  0.00    +0.050 C 
ATOM     13  C   LIG    1        2.234  -1.605  -1.347  0.00  0.00    +0.030 C 
ENDBRANCH  11  12
BRANCH  11  14
ATOM     14  C   LIG    1        1.014  -1.027   2.253  0.00  0.00    +0.090 C 
BRANCH  14  16
ATOM     15  C   LIG    1        2.307  -1.376   4.295  0.00  0.00    +0.080 C 
ATOM     16  C   LIG    1        1.385  -1.822   3.479  0.00  0.00    -0.100 C 
ENDBRANCH  14  16
ENDBRANCH  11  14
ENDBRANCH   1  11
TORSDOF 7
ENDMDL
MODEL      836
REMARK  Name = ZINC000394213076
REMARK                            x       y       z     vdW  Elec       q    Type
REMARK                         _______ _______ _______ _____ _____    ______ ____
ROOT
ATOM      1  N   LIG    1        1.472  -0.835   2.404  0.00  0.00    -0.510 N 
ATOM      2  H   LIG    1        0.712  -0.172   2.422  0.00  0.00    +0.420 HD
ATOM      3  H   LIG    1        2.347  -0.342   2.309  0.00  0.00    +0.420 HD
ENDROOT
BRANCH   1   4
ATOM      4  C   LIG    1        1.479  -1.606   3.654  0.00  0.00    +0.160 C 
ATOM      5  C   LIG    1        0.109  -2.256   3.860  0.00  0.00    +0.090 C 
BRANCH   4   6
ATOM      6  C   LIG    1        1.782  -0.673   4.828  0.00  0.00    +0.060 C 
BRANCH   6   7
ATOM      7  C   LIG    1        3.202  -0.120   4.686  0.00  0.00    -0.040 C 
ATOM      8  C   LIG    1        3.282   1.161   3.838  0.00  0.00    -0.010 C 
ATOM      9  C   LIG    1        4.311   1.677   4.858  0.00  0.00    +0.030 C 
ATOM     10  C   LIG    1        3.652   0.737   5.881  0.00  0.00    +0.040 C 
ENDBRANCH   6   7
ENDBRANCH   4   6
ENDBRANCH   1   4
BRANCH   1  11
ATOM     11  C   LIG    1        1.299  -1.748   1.266  0.00  0.00    +0.160 C 
BRANCH  11  12
ATOM     12  C   LIG    1        2.525  -2.655   1.148  0.00  0.00    +0.030 C 
ATOM     13  C   LIG    1        2.301  -3.673   0.029  0.00  0.00    +0.060 C 
ENDBRANCH  11  12
BRANCH  11  14
ATOM     14  C   LIG    1        1.139  -0.935  -0.020  0.00  0.00    +0.090 C 
BRANCH  14  16
ATOM     15  C   LIG    1       -0.103   1.164  -0.127  0.00  0.00    +0.060 C 
ATOM     16  C   LIG    1       -0.135  -0.134   0.046  0.00  0.00    -0.090 C 
ENDBRANCH  14  16
ENDBRANCH  11  14
ENDBRANCH   1  11
TORSDOF 7
ENDMDL
MODEL      837
REMARK  Name = ZINC000394213065
REMARK                            x       y       z     vdW  Elec       q    Type
REMARK                         _______ _______ _______ _____ _____    ______ ____
ROOT
ATOM      1  N   LIG    1        0.182  -2.734   1.131  0.00  0.00    -0.510 N 
ATOM      2  H   LIG    1        0.268  -3.423   0.399  0.00  0.00    +0.420 HD
ATOM      3  H   LIG    1       -0.617  -2.145   0.948  0.00  0.00    +0.420 HD
ENDROOT
BRANCH   1   4
ATOM      4  C   LIG    1        0.005  -3.411   2.423  0.00  0.00    +0.160 C 
ATOM      5  C   LIG    1       -0.268  -2.370   3.511  0.00  0.00    +0.090 C 
BRANCH   4   6
ATOM      6  C   LIG    1       -1.177  -4.378   2.334  0.00  0.00    +0.070 C 
BRANCH   6   7
ATOM      7  C   LIG    1       -0.851  -5.491   1.335  0.00  0.00    -0.050 C 
ATOM      8  C   LIG    1       -0.112  -6.684   1.963  0.00  0.00    +0.020 C 
ATOM      9  C   LIG    1       -0.990  -7.590   1.082  0.00  0.00    +0.010 C 
ATOM     10  C   LIG    1       -2.024  -6.452   1.080  0.00  0.00    +0.030 C 
ENDBRANCH   6   7
ENDBRANCH   4   6
ENDBRANCH   1   4
BRANCH   1  11
ATOM     11  C   LIG    1        1.398  -1.910   1.173  0.00  0.00    +0.170 C 
BRANCH  11  12
ATOM     12  C   LIG    1        2.623  -2.816   1.312  0.00  0.00    +0.030 C 
ATOM     13  C   LIG    1        3.875  -1.956   1.497  0.00  0.00    +0.060 C 
ENDBRANCH  11  12
BRANCH  11  14
ATOM     14  C   LIG    1        1.508  -1.099  -0.120  0.00  0.00    +0.100 C 
BRANCH  14  16
ATOM     15  C   LIG    1        0.608   1.158  -0.358  0.00  0.00    +0.090 C 
ATOM     16  C   LIG    1        0.366  -0.119  -0.196  0.00  0.00    -0.110 C 
ENDBRANCH  14  16
ENDBRANCH  11  14
ENDBRANCH   1  11
TORSDOF 7
ENDMDL
MODEL      838
REMARK  Name = ZINC001169342358
REMARK                            x       y       z     vdW  Elec       q    Type
REMARK                         _______ _______ _______ _____ _____    ______ ____
ROOT
ATOM      1  C   LIG    1       -2.556  -3.502  -2.235  0.00  0.00    +0.250 C 
ENDROOT
BRANCH   1   2
ATOM      2  N   LIG    1       -2.581  -2.493  -1.168  0.00  0.00    -0.390 N 
ATOM      3  C   LIG    1       -3.702  -1.570  -1.393  0.00  0.00    +0.310 C 
ATOM      4  H   LIG    1       -2.695  -2.949  -0.276  0.00  0.00    +0.420 HD
BRANCH   2   5
ATOM      5  C   LIG    1       -1.319  -1.741  -1.176  0.00  0.00    +0.250 C 
BRANCH   5   6
ATOM      6  C   LIG    1       -1.293  -0.775   0.010  0.00  0.00    +0.060 C 
BRANCH   6   8
ATOM      7  C   LIG    1       -0.016   1.306   0.009  0.00  0.00    +0.060 C 
ATOM      8  C   LIG    1        0.002  -0.004   0.002  0.00  0.00    -0.070 C 
ENDBRANCH   6   8
ENDBRANCH   5   6
ENDBRANCH   2   5
ENDBRANCH   1   2
BRANCH   1   9
ATOM      9  C   LIG    1       -3.815  -4.367  -2.148  0.00  0.00    +0.030 C 
BRANCH   9  10
ATOM     10  C   LIG    1       -3.790  -5.418  -3.259  0.00  0.00    +0.020 C 
BRANCH  10  11
ATOM     11  C   LIG    1       -5.049  -6.283  -3.172  0.00  0.00    +0.020 C 
BRANCH  11  12
ATOM     12  C   LIG    1       -5.023  -7.334  -4.283  0.00  0.00    +0.000 C 
BRANCH  12  13
ATOM     13  C   LIG    1       -6.283  -8.199  -4.197  0.00  0.00    +0.000 C 
BRANCH  13  14
ATOM     14  C   LIG    1       -6.257  -9.251  -5.308  0.00  0.00    -0.010 C 
ATOM     15  C   LIG    1       -7.516 -10.115  -5.221  0.00  0.00    +0.000 C 
ENDBRANCH  13  14
ENDBRANCH  12  13
ENDBRANCH  11  12
ENDBRANCH  10  11
ENDBRANCH   9  10
ENDBRANCH   1   9
TORSDOF 10
ENDMDL
MODEL      839
REMARK  Name = ZINC000088169243
REMARK                            x       y       z     vdW  Elec       q    Type
REMARK                         _______ _______ _______ _____ _____    ______ ____
ROOT
ATOM      1  C   LIG    1       -2.606  -3.419  -2.308  0.00  0.00    +0.170 C 
ATOM      2  C   LIG    1       -2.618  -2.622  -3.614  0.00  0.00    +0.080 C 
ENDROOT
BRANCH   1   3
ATOM      3  C   LIG    1       -3.862  -4.290  -2.230  0.00  0.00    -0.010 C 
ATOM      4  C   LIG    1       -5.084  -3.431  -2.417  0.00  0.00    +0.000 C 
ATOM      5  C   LIG    1       -6.285  -3.928  -1.591  0.00  0.00    +0.010 C 
ATOM      6  C   LIG    1       -6.434  -5.462  -1.615  0.00  0.00    +0.010 C 
ATOM      7  C   LIG    1       -6.194  -6.041  -2.983  0.00  0.00    +0.020 C 
ATOM      8  C   LIG    1       -4.716  -6.470  -3.081  0.00  0.00    +0.000 C 
ATOM      9  C   LIG    1       -3.830  -5.347  -3.352  0.00  0.00    +0.040 C 
ENDBRANCH   1   3
BRANCH   1  10
ATOM     10  N   LIG    1       -2.581  -2.493  -1.168  0.00  0.00    -0.510 N 
ATOM     11  H   LIG    1       -3.355  -1.850  -1.240  0.00  0.00    +0.420 HD
ATOM     12  H   LIG    1       -2.656  -3.015  -0.308  0.00  0.00    +0.430 HD
BRANCH  10  13
ATOM     13  C   LIG    1       -1.319  -1.741  -1.176  0.00  0.00    +0.250 C 
BRANCH  13  14
ATOM     14  C   LIG    1       -1.293  -0.775   0.010  0.00  0.00    +0.060 C 
BRANCH  14  16
ATOM     15  C   LIG    1       -0.016   1.306   0.009  0.00  0.00    +0.060 C 
ATOM     16  C   LIG    1        0.002  -0.004   0.002  0.00  0.00    -0.070 C 
ENDBRANCH  14  16
ENDBRANCH  13  14
ENDBRANCH  10  13
ENDBRANCH   1  10
TORSDOF 5
ENDMDL
MODEL      840
REMARK  Name = ZINC000088169148
REMARK                            x       y       z     vdW  Elec       q    Type
REMARK                         _______ _______ _______ _____ _____    ______ ____
ROOT
ATOM      1  C   LIG    1       -2.606  -3.419  -2.308  0.00  0.00    +0.170 C 
ATOM      2  C   LIG    1       -2.447  -2.486  -1.106  0.00  0.00    +0.080 C 
ENDROOT
BRANCH   1   3
ATOM      3  C   LIG    1       -4.016  -4.013  -2.309  0.00  0.00    +0.010 C 
ATOM      4  C   LIG    1       -5.023  -2.924  -2.562  0.00  0.00    +0.000 C 
ATOM      5  C   LIG    1       -6.347  -3.160  -1.812  0.00  0.00    +0.020 C 
ATOM      6  C   LIG    1       -6.805  -4.630  -1.855  0.00  0.00    +0.000 C 
ATOM      7  C   LIG    1       -6.609  -5.255  -3.210  0.00  0.00    +0.020 C 
ATOM      8  C   LIG    1       -5.247  -5.978  -3.224  0.00  0.00    +0.010 C 
ATOM      9  C   LIG    1       -4.135  -5.062  -3.434  0.00  0.00    +0.010 C 
ENDBRANCH   1   3
BRANCH   1  10
ATOM     10  N   LIG    1       -2.392  -2.661  -3.548  0.00  0.00    -0.510 N 
ATOM     11  H   LIG    1       -2.595  -3.251  -4.341  0.00  0.00    +0.430 HD
ATOM     12  H   LIG    1       -3.003  -1.858  -3.560  0.00  0.00    +0.420 HD
BRANCH  10  13
ATOM     13  C   LIG    1       -0.995  -2.214  -3.614  0.00  0.00    +0.250 C 
BRANCH  13  14
ATOM     14  C   LIG    1       -0.772  -1.424  -4.905  0.00  0.00    +0.060 C 
BRANCH  14  16
ATOM     15  C   LIG    1        1.397  -1.265  -6.015  0.00  0.00    +0.060 C 
ATOM     16  C   LIG    1        0.662  -0.966  -4.973  0.00  0.00    -0.070 C 
ENDBRANCH  14  16
ENDBRANCH  13  14
ENDBRANCH  10  13
ENDBRANCH   1  10
TORSDOF 5
ENDMDL
MODEL      841
REMARK  Name = ZINC000680434455
REMARK                            x       y       z     vdW  Elec       q    Type
REMARK                         _______ _______ _______ _____ _____    ______ ____
ROOT
ATOM      1  N   LIG    1        1.246  -0.860   1.642  0.00  0.00    -0.380 N 
ATOM      2  C   LIG    1        0.426  -1.900   2.275  0.00  0.00    +0.250 C 
ATOM      3  C   LIG    1        0.631  -1.864   3.791  0.00  0.00    +0.060 C 
ATOM      4  C   LIG    1        2.109  -2.114   4.106  0.00  0.00    +0.030 C 
ATOM      5  C   LIG    1        2.960  -1.068   3.380  0.00  0.00    +0.060 C 
ATOM      6  C   LIG    1        2.668  -1.135   1.879  0.00  0.00    +0.160 C 
ATOM      7  H   LIG    1        1.008   0.039   2.033  0.00  0.00    +0.420 HD
ENDROOT
BRANCH   1   8
ATOM      8  C   LIG    1        0.986  -0.847   0.196  0.00  0.00    +0.300 C 
BRANCH   8  10
ATOM      9  C   LIG    1        2.883   0.139  -0.984  0.00  0.00    +0.110 C 
ATOM     10  C   LIG    1        1.708   0.317  -0.434  0.00  0.00    -0.190 C 
BRANCH  10  11
ATOM     11  C   LIG    1        1.077   1.686  -0.430  0.00  0.00    +0.060 C 
ATOM     12  C   LIG    1        0.132   1.815  -1.627  0.00  0.00    +0.040 C 
ENDBRANCH  10  11
ENDBRANCH   8  10
ENDBRANCH   1   8
BRANCH   6  13
ATOM     13  C   LIG    1        3.013  -2.530   1.355  0.00  0.00    +0.020 C 
BRANCH  13  14
ATOM     14  C   LIG    1        4.513  -2.780   1.518  0.00  0.00    +0.030 C 
ATOM     15  C   LIG    1        4.880  -4.120   0.879  0.00  0.00    +0.030 C 
ENDBRANCH  13  14
ENDBRANCH   6  13
TORSDOF 5
ENDMDL
MODEL      842
REMARK  Name = ZINC000680433901
REMARK                            x       y       z     vdW  Elec       q    Type
REMARK                         _______ _______ _______ _____ _____    ______ ____
ROOT
ATOM      1  N   LIG    1       -2.723  -3.351  -2.244  0.00  0.00    -0.380 N 
ATOM      2  C   LIG    1       -1.532  -4.192  -2.079  0.00  0.00    +0.240 C 
ATOM      3  C   LIG    1       -1.373  -5.103  -3.298  0.00  0.00    +0.060 C 
ATOM      4  C   LIG    1       -2.612  -5.992  -3.429  0.00  0.00    +0.030 C 
ATOM      5  C   LIG    1       -3.857  -5.105  -3.527  0.00  0.00    +0.060 C 
ATOM      6  C   LIG    1       -3.923  -4.195  -2.298  0.00  0.00    +0.170 C 
ATOM      7  H   LIG    1       -2.645  -2.824  -3.101  0.00  0.00    +0.420 HD
ENDROOT
BRANCH   1   8
ATOM      8  C   LIG    1       -2.829  -2.425  -1.109  0.00  0.00    +0.250 C 
BRANCH   8   9
ATOM      9  C   LIG    1       -1.650  -1.450  -1.135  0.00  0.00    +0.040 C 
BRANCH   9  10
ATOM     10  C   LIG    1       -1.759  -0.485   0.047  0.00  0.00    +0.070 C 
BRANCH  10  12
ATOM     11  C   LIG    1       -0.817   1.767   0.023  0.00  0.00    +0.030 C 
ATOM     12  C   LIG    1       -0.598   0.476   0.021  0.00  0.00    -0.070 C 
ENDBRANCH  10  12
ENDBRANCH   9  10
ENDBRANCH   8   9
ENDBRANCH   1   8
BRANCH   6  13
ATOM     13  C   LIG    1       -4.002  -5.052  -1.033  0.00  0.00    +0.020 C 
BRANCH  13  14
ATOM     14  C   LIG    1       -5.321  -5.828  -1.024  0.00  0.00    +0.020 C 
ATOM     15  C   LIG    1       -5.459  -6.584   0.299  0.00  0.00    +0.030 C 
ENDBRANCH  13  14
ENDBRANCH   6  13
TORSDOF 6
ENDMDL
MODEL      843
REMARK  Name = ZINC000680434456
REMARK                            x       y       z     vdW  Elec       q    Type
REMARK                         _______ _______ _______ _____ _____    ______ ____
ROOT
ATOM      1  N   LIG    1        1.342  -1.245   1.014  0.00  0.00    -0.380 N 
ATOM      2  C   LIG    1        0.331  -2.299   1.155  0.00  0.00    +0.250 C 
ATOM      3  C   LIG    1        0.402  -2.895   2.562  0.00  0.00    +0.050 C 
ATOM      4  C   LIG    1        1.795  -3.489   2.789  0.00  0.00    +0.030 C 
ATOM      5  C   LIG    1        2.846  -2.398   2.567  0.00  0.00    +0.060 C 
ATOM      6  C   LIG    1        2.684  -1.822   1.159  0.00  0.00    +0.170 C 
ATOM      7  H   LIG    1        1.199  -0.546   1.727  0.00  0.00    +0.420 HD
ENDROOT
BRANCH   1   8
ATOM      8  C   LIG    1        1.219  -0.623  -0.311  0.00  0.00    +0.300 C 
BRANCH   8  10
ATOM      9  C   LIG    1       -0.252   1.317  -0.131  0.00  0.00    +0.120 C 
ATOM     10  C   LIG    1       -0.126   0.048  -0.428  0.00  0.00    -0.190 C 
BRANCH  10  11
ATOM     11  C   LIG    1       -1.325  -0.742  -0.886  0.00  0.00    +0.050 C 
ATOM     12  C   LIG    1       -1.389  -0.730  -2.415  0.00  0.00    +0.040 C 
ENDBRANCH  10  11
ENDBRANCH   8  10
ENDBRANCH   1   8
BRANCH   6  13
ATOM     13  C   LIG    1        3.732  -0.731   0.931  0.00  0.00    +0.030 C 
BRANCH  13  14
ATOM     14  C   LIG    1        5.132  -1.344   1.009  0.00  0.00    +0.030 C 
ATOM     15  C   LIG    1        6.181  -0.237   0.880  0.00  0.00    +0.030 C 
ENDBRANCH  13  14
ENDBRANCH   6  13
TORSDOF 5
ENDMDL
MODEL      844
REMARK  Name = ZINC000680433902
REMARK                            x       y       z     vdW  Elec       q    Type
REMARK                         _______ _______ _______ _____ _____    ______ ____
ROOT
ATOM      1  N   LIG    1       -2.663  -3.460  -2.470  0.00  0.00    -0.380 N 
ATOM      2  C   LIG    1       -1.526  -4.381  -2.354  0.00  0.00    +0.250 C 
ATOM      3  C   LIG    1       -1.593  -5.424  -3.472  0.00  0.00    +0.050 C 
ATOM      4  C   LIG    1       -2.902  -6.209  -3.353  0.00  0.00    +0.030 C 
ATOM      5  C   LIG    1       -4.079  -5.230  -3.401  0.00  0.00    +0.060 C 
ATOM      6  C   LIG    1       -3.920  -4.196  -2.285  0.00  0.00    +0.170 C 
ATOM      7  H   LIG    1       -2.657  -3.033  -3.385  0.00  0.00    +0.420 HD
ENDROOT
BRANCH   1   8
ATOM      8  C   LIG    1       -2.553  -2.416  -1.443  0.00  0.00    +0.240 C 
BRANCH   8   9
ATOM      9  C   LIG    1       -1.309  -1.566  -1.712  0.00  0.00    +0.040 C 
BRANCH   9  10
ATOM     10  C   LIG    1       -1.194  -0.478  -0.642  0.00  0.00    +0.070 C 
BRANCH  10  12
ATOM     11  C   LIG    1       -0.077   1.659  -1.027  0.00  0.00    +0.030 C 
ATOM     12  C   LIG    1        0.031   0.359  -0.906  0.00  0.00    -0.070 C 
ENDBRANCH  10  12
ENDBRANCH   9  10
ENDBRANCH   8   9
ENDBRANCH   1   8
BRANCH   6  13
ATOM     13  C   LIG    1       -5.093  -3.215  -2.328  0.00  0.00    +0.030 C 
BRANCH  13  14
ATOM     14  C   LIG    1       -6.398  -3.969  -2.068  0.00  0.00    +0.030 C 
ATOM     15  C   LIG    1       -7.580  -3.009  -2.219  0.00  0.00    +0.030 C 
ENDBRANCH  13  14
ENDBRANCH   6  13
TORSDOF 6
ENDMDL
MODEL      845
REMARK  Name = ZINC000606897335
REMARK                            x       y       z     vdW  Elec       q    Type
REMARK                         _______ _______ _______ _____ _____    ______ ____
ROOT
ATOM      1  N   LIG    1       -2.507  -2.557  -1.093  0.00  0.00    -0.380 N 
ATOM      2  H   LIG    1       -2.737  -3.212  -0.360  0.00  0.00    +0.420 HD
ENDROOT
BRANCH   1   3
ATOM      3  C   LIG    1       -2.064  -3.293  -2.284  0.00  0.00    +0.160 C 
ATOM      4  C   LIG    1       -0.750  -4.014  -1.980  0.00  0.00    +0.040 C 
ATOM      5  C   LIG    1       -0.288  -4.781  -3.221  0.00  0.00    +0.030 C 
ATOM      6  C   LIG    1       -1.354  -5.806  -3.612  0.00  0.00    +0.020 C 
ATOM      7  C   LIG    1       -2.668  -5.085  -3.917  0.00  0.00    +0.030 C 
ATOM      8  C   LIG    1       -3.130  -4.319  -2.676  0.00  0.00    +0.040 C 
ENDBRANCH   1   3
BRANCH   1   9
ATOM      9  C   LIG    1       -3.692  -1.756  -1.424  0.00  0.00    +0.160 C 
ATOM     10  C   LIG    1       -4.955  -2.568  -1.130  0.00  0.00    +0.080 C 
ATOM     11  C   LIG    1       -3.659  -1.385  -2.908  0.00  0.00    +0.080 C 
ENDBRANCH   1   9
BRANCH   1  12
ATOM     12  C   LIG    1       -1.428  -1.671  -0.636  0.00  0.00    +0.260 C 
BRANCH  12  13
ATOM     13  C   LIG    1       -1.839  -1.004   0.678  0.00  0.00    +0.070 C 
BRANCH  13  15
ATOM     14  C   LIG    1       -0.847   1.076   1.486  0.00  0.00    +0.060 C 
ATOM     15  C   LIG    1       -0.685  -0.195   1.213  0.00  0.00    -0.060 C 
ENDBRANCH  13  15
ENDBRANCH  12  13
ENDBRANCH   1  12
TORSDOF 5
ENDMDL
MODEL      846
REMARK  Name = ZINC000606902258
REMARK                            x       y       z     vdW  Elec       q    Type
REMARK                         _______ _______ _______ _____ _____    ______ ____
ROOT
ATOM      1  N   LIG    1        4.143  -5.127   3.433  0.00  0.00    -0.390 N 
ATOM      2  C   LIG    1        3.116  -6.162   3.255  0.00  0.00    +0.320 C 
ATOM      3  H   LIG    1        3.972  -4.628   4.293  0.00  0.00    +0.420 HD
ENDROOT
BRANCH   1   4
ATOM      4  C   LIG    1        4.093  -4.188   2.304  0.00  0.00    +0.250 C 
BRANCH   4   5
ATOM      5  C   LIG    1        2.757  -3.441   2.321  0.00  0.00    +0.030 C 
BRANCH   5   6
ATOM      6  C   LIG    1        2.705  -2.464   1.145  0.00  0.00    +0.020 C 
BRANCH   6   7
ATOM      7  C   LIG    1        1.370  -1.717   1.161  0.00  0.00    +0.020 C 
BRANCH   7   8
ATOM      8  C   LIG    1        1.317  -0.740  -0.015  0.00  0.00    +0.050 C 
BRANCH   8  10
ATOM      9  C   LIG    1       -0.016   1.306   0.009  0.00  0.00    +0.020 C 
ATOM     10  C   LIG    1        0.002  -0.004   0.002  0.00  0.00    -0.060 C 
ENDBRANCH   8  10
ENDBRANCH   7   8
ENDBRANCH   6   7
ENDBRANCH   5   6
ENDBRANCH   4   5
ENDBRANCH   1   4
BRANCH   1  11
ATOM     11  C   LIG    1        5.469  -5.756   3.488  0.00  0.00    +0.250 C 
BRANCH  11  12
ATOM     12  C   LIG    1        5.564  -6.638   4.734  0.00  0.00    +0.040 C 
BRANCH  12  13
ATOM     13  C   LIG    1        6.945  -7.294   4.791  0.00  0.00    +0.070 C 
BRANCH  13  14
ATOM     14  C   LIG    1        7.038  -8.163   6.019  0.00  0.00    -0.070 C 
ATOM     15  C   LIG    1        7.364  -9.427   5.904  0.00  0.00    +0.030 C 
ENDBRANCH  13  14
ENDBRANCH  12  13
ENDBRANCH  11  12
ENDBRANCH   1  11
TORSDOF 10
ENDMDL
MODEL      847
REMARK  Name = ZINC000606902613
REMARK                            x       y       z     vdW  Elec       q    Type
REMARK                         _______ _______ _______ _____ _____    ______ ____
ROOT
ATOM      1  N   LIG    1       -3.999  -5.199  -3.486  0.00  0.00    -0.390 N 
ATOM      2  C   LIG    1       -2.944  -6.208  -3.319  0.00  0.00    +0.310 C 
ATOM      3  H   LIG    1       -3.841  -4.686  -4.340  0.00  0.00    +0.420 HD
ENDROOT
BRANCH   1   4
ATOM      4  C   LIG    1       -3.974  -4.272  -2.346  0.00  0.00    +0.250 C 
BRANCH   4   5
ATOM      5  C   LIG    1       -2.659  -3.489  -2.355  0.00  0.00    +0.030 C 
BRANCH   5   6
ATOM      6  C   LIG    1       -2.633  -2.524  -1.168  0.00  0.00    +0.020 C 
BRANCH   6   7
ATOM      7  C   LIG    1       -1.319  -1.741  -1.176  0.00  0.00    +0.020 C 
BRANCH   7   8
ATOM      8  C   LIG    1       -1.293  -0.775   0.010  0.00  0.00    +0.050 C 
BRANCH   8  10
ATOM      9  C   LIG    1       -0.016   1.306   0.009  0.00  0.00    +0.020 C 
ATOM     10  C   LIG    1        0.002  -0.004   0.002  0.00  0.00    -0.060 C 
ENDBRANCH   8  10
ENDBRANCH   7   8
ENDBRANCH   6   7
ENDBRANCH   5   6
ENDBRANCH   4   5
ENDBRANCH   1   4
BRANCH   1  11
ATOM     11  C   LIG    1       -5.307  -5.864  -3.547  0.00  0.00    +0.250 C 
BRANCH  11  12
ATOM     12  C   LIG    1       -5.378  -6.734  -4.803  0.00  0.00    +0.030 C 
BRANCH  12  13
ATOM     13  C   LIG    1       -6.741  -7.427  -4.868  0.00  0.00    -0.010 C 
ATOM     14  C   LIG    1       -6.875  -8.399  -3.694  0.00  0.00    +0.020 C 
ATOM     15  C   LIG    1       -6.860  -8.198  -6.184  0.00  0.00    +0.040 C 
ENDBRANCH  12  13
ENDBRANCH  11  12
ENDBRANCH   1  11
TORSDOF 9
ENDMDL
MODEL      848
REMARK  Name = ZINC000606902690
REMARK                            x       y       z     vdW  Elec       q    Type
REMARK                         _______ _______ _______ _____ _____    ______ ____
ROOT
ATOM      1  N   LIG    1        4.130  -5.022   3.574  0.00  0.00    -0.380 N 
ATOM      2  C   LIG    1        3.000  -5.959   3.549  0.00  0.00    +0.310 C 
ATOM      3  H   LIG    1        4.112  -4.496   4.435  0.00  0.00    +0.420 HD
ENDROOT
BRANCH   1   4
ATOM      4  C   LIG    1        4.027  -4.100   2.435  0.00  0.00    +0.250 C 
BRANCH   4   5
ATOM      5  C   LIG    1        2.777  -3.231   2.594  0.00  0.00    +0.030 C 
BRANCH   5   6
ATOM      6  C   LIG    1        2.669  -2.271   1.407  0.00  0.00    +0.020 C 
BRANCH   6   7
ATOM      7  C   LIG    1        1.419  -1.403   1.566  0.00  0.00    +0.020 C 
BRANCH   7   8
ATOM      8  C   LIG    1        1.312  -0.443   0.380  0.00  0.00    +0.050 C 
BRANCH   8  10
ATOM      9  C   LIG    1        0.183   1.718   0.511  0.00  0.00    +0.020 C 
ATOM     10  C   LIG    1        0.081   0.412   0.536  0.00  0.00    -0.060 C 
ENDBRANCH   8  10
ENDBRANCH   7   8
ENDBRANCH   6   7
ENDBRANCH   5   6
ENDBRANCH   4   5
ENDBRANCH   1   4
BRANCH   1  11
ATOM     11  C   LIG    1        5.390  -5.771   3.484  0.00  0.00    +0.290 C 
BRANCH  11  12
ATOM     12  C   LIG    1        5.555  -6.627   4.714  0.00  0.00    -0.130 C 
ATOM     13  C   LIG    1        5.792  -7.909   4.593  0.00  0.00    -0.040 C 
ATOM     14  C   LIG    1        5.782  -8.796   5.812  0.00  0.00    +0.110 C 
ATOM     15  C   LIG    1        6.075  -8.498   3.235  0.00  0.00    +0.090 C 
ENDBRANCH  11  12
ENDBRANCH   1  11
TORSDOF 8
ENDMDL
MODEL      849
REMARK  Name = ZINC000606902286
REMARK                            x       y       z     vdW  Elec       q    Type
REMARK                         _______ _______ _______ _____ _____    ______ ____
ROOT
ATOM      1  N   LIG    1        4.143  -5.127   3.433  0.00  0.00    -0.390 N 
ATOM      2  C   LIG    1        3.116  -6.162   3.255  0.00  0.00    +0.310 C 
ATOM      3  H   LIG    1        3.972  -4.628   4.293  0.00  0.00    +0.420 HD
ENDROOT
BRANCH   1   4
ATOM      4  C   LIG    1        4.093  -4.188   2.304  0.00  0.00    +0.250 C 
BRANCH   4   5
ATOM      5  C   LIG    1        2.757  -3.441   2.321  0.00  0.00    +0.030 C 
BRANCH   5   6
ATOM      6  C   LIG    1        2.705  -2.464   1.145  0.00  0.00    +0.020 C 
BRANCH   6   7
ATOM      7  C   LIG    1        1.370  -1.717   1.161  0.00  0.00    +0.020 C 
BRANCH   7   8
ATOM      8  C   LIG    1        1.317  -0.740  -0.015  0.00  0.00    +0.050 C 
BRANCH   8  10
ATOM      9  C   LIG    1       -0.016   1.306   0.009  0.00  0.00    +0.020 C 
ATOM     10  C   LIG    1        0.002  -0.004   0.002  0.00  0.00    -0.060 C 
ENDBRANCH   8  10
ENDBRANCH   7   8
ENDBRANCH   6   7
ENDBRANCH   5   6
ENDBRANCH   4   5
ENDBRANCH   1   4
BRANCH   1  11
ATOM     11  C   LIG    1        5.469  -5.756   3.488  0.00  0.00    +0.250 C 
BRANCH  11  12
ATOM     12  C   LIG    1        5.564  -6.638   4.734  0.00  0.00    +0.030 C 
BRANCH  12  13
ATOM     13  C   LIG    1        6.945  -7.294   4.791  0.00  0.00    +0.020 C 
BRANCH  13  14
ATOM     14  C   LIG    1        7.040  -8.176   6.037  0.00  0.00    +0.010 C 
ATOM     15  C   LIG    1        8.421  -8.832   6.094  0.00  0.00    +0.020 C 
ENDBRANCH  13  14
ENDBRANCH  12  13
ENDBRANCH  11  12
ENDBRANCH   1  11
TORSDOF 10
ENDMDL
MODEL      850
REMARK  Name = ZINC000606901051
REMARK                            x       y       z     vdW  Elec       q    Type
REMARK                         _______ _______ _______ _____ _____    ______ ____
ROOT
ATOM      1  N   LIG    1       -2.694  -3.398  -2.413  0.00  0.00    -0.380 N 
ATOM      2  C   LIG    1       -1.491  -4.250  -2.304  0.00  0.00    +0.250 C 
ATOM      3  C   LIG    1       -1.609  -5.581  -3.067  0.00  0.00    +0.060 C 
ATOM      4  C   LIG    1       -2.233  -5.439  -4.430  0.00  0.00    +0.020 C 
ATOM      5  C   LIG    1       -3.762  -5.650  -4.304  0.00  0.00    +0.030 C 
ATOM      6  C   LIG    1       -4.405  -4.480  -3.719  0.00  0.00    +0.050 C 
ATOM      7  C   LIG    1       -3.909  -4.167  -2.297  0.00  0.00    +0.160 C 
ATOM      8  H   LIG    1       -2.685  -2.930  -3.306  0.00  0.00    +0.420 HD
ENDROOT
BRANCH   7   9
ATOM      9  C   LIG    1       -4.967  -3.354  -1.547  0.00  0.00    +0.030 C 
ATOM     10  C   LIG    1       -6.229  -4.201  -1.368  0.00  0.00    +0.060 C 
ENDBRANCH   7   9
BRANCH   1  11
ATOM     11  C   LIG    1       -2.663  -2.389  -1.345  0.00  0.00    +0.250 C 
BRANCH  11  12
ATOM     12  C   LIG    1       -1.423  -1.508  -1.511  0.00  0.00    +0.040 C 
BRANCH  12  13
ATOM     13  C   LIG    1       -1.391  -0.458  -0.400  0.00  0.00    +0.070 C 
BRANCH  13  15
ATOM     14  C   LIG    1       -0.296   1.711  -0.644  0.00  0.00    +0.030 C 
ATOM     15  C   LIG    1       -0.169   0.409  -0.563  0.00  0.00    -0.070 C 
ENDBRANCH  13  15
ENDBRANCH  12  13
ENDBRANCH  11  12
ENDBRANCH   1  11
TORSDOF 5
ENDMDL
MODEL      851
REMARK  Name = ZINC000606901050
REMARK                            x       y       z     vdW  Elec       q    Type
REMARK                         _______ _______ _______ _____ _____    ______ ____
ROOT
ATOM      1  N   LIG    1       -2.728  -3.315  -2.364  0.00  0.00    -0.380 N 
ATOM      2  C   LIG    1       -1.714  -4.336  -2.256  0.00  0.00    +0.240 C 
ATOM      3  C   LIG    1       -1.123  -4.564  -3.657  0.00  0.00    +0.050 C 
ATOM      4  C   LIG    1       -1.913  -5.482  -4.469  0.00  0.00    +0.030 C 
ATOM      5  C   LIG    1       -3.342  -4.930  -4.701  0.00  0.00    +0.020 C 
ATOM      6  C   LIG    1       -4.143  -5.109  -3.439  0.00  0.00    +0.060 C 
ATOM      7  C   LIG    1       -4.082  -3.896  -2.495  0.00  0.00    +0.160 C 
ATOM      8  H   LIG    1       -2.535  -2.745  -3.173  0.00  0.00    +0.420 HD
ENDROOT
BRANCH   7   9
ATOM      9  C   LIG    1       -4.565  -4.329  -1.109  0.00  0.00    +0.020 C 
ATOM     10  C   LIG    1       -6.018  -4.798  -1.199  0.00  0.00    +0.060 C 
ENDBRANCH   7   9
BRANCH   1  11
ATOM     11  C   LIG    1       -2.685  -2.470  -1.163  0.00  0.00    +0.240 C 
BRANCH  11  12
ATOM     12  C   LIG    1       -1.349  -1.726  -1.111  0.00  0.00    +0.040 C 
BRANCH  12  13
ATOM     13  C   LIG    1       -1.358  -0.742   0.060  0.00  0.00    +0.070 C 
BRANCH  13  15
ATOM     14  C   LIG    1       -0.021   1.301   0.098  0.00  0.00    +0.030 C 
ATOM     15  C   LIG    1       -0.042  -0.009   0.111  0.00  0.00    -0.070 C 
ENDBRANCH  13  15
ENDBRANCH  12  13
ENDBRANCH  11  12
ENDBRANCH   1  11
TORSDOF 5
ENDMDL
MODEL      852
REMARK  Name = ZINC000112047707
REMARK                            x       y       z     vdW  Elec       q    Type
REMARK                         _______ _______ _______ _____ _____    ______ ____
ROOT
ATOM      1  N   LIG    1        2.212  -6.013  -3.799  0.00  0.00    -0.510 N 
ATOM      2  H   LIG    1        1.265  -6.362  -3.792  0.00  0.00    +0.420 HD
ATOM      3  H   LIG    1        2.700  -6.347  -2.982  0.00  0.00    +0.430 HD
ENDROOT
BRANCH   1   4
ATOM      4  C   LIG    1        2.900  -6.487  -5.008  0.00  0.00    +0.170 C 
ATOM      5  C   LIG    1        2.092  -6.086  -6.244  0.00  0.00    +0.090 C 
BRANCH   4   6
ATOM      6  C   LIG    1        3.030  -8.010  -4.956  0.00  0.00    +0.090 C 
BRANCH   6   7
ATOM      7  C   LIG    1        3.941  -8.404  -3.792  0.00  0.00    -0.090 C 
ATOM      8  C   LIG    1        3.323  -9.226  -2.659  0.00  0.00    +0.010 C 
ATOM      9  C   LIG    1        4.294  -9.885  -3.641  0.00  0.00    +0.050 C 
ENDBRANCH   6   7
ENDBRANCH   4   6
ENDBRANCH   1   4
BRANCH   1  10
ATOM     10  C   LIG    1        2.192  -4.544  -3.791  0.00  0.00    +0.250 C 
BRANCH  10  11
ATOM     11  C   LIG    1        1.476  -4.051  -2.532  0.00  0.00    +0.030 C 
BRANCH  11  12
ATOM     12  C   LIG    1        1.455  -2.521  -2.524  0.00  0.00    +0.020 C 
BRANCH  12  13
ATOM     13  C   LIG    1        0.739  -2.027  -1.265  0.00  0.00    +0.020 C 
BRANCH  13  14
ATOM     14  C   LIG    1        0.718  -0.497  -1.257  0.00  0.00    +0.000 C 
BRANCH  14  16
ATOM     15  C   LIG    1       -0.019   1.526   0.010  0.00  0.00    +0.000 C 
ATOM     16  C   LIG    1        0.002  -0.004   0.002  0.00  0.00    -0.010 C 
ENDBRANCH  14  16
ENDBRANCH  13  14
ENDBRANCH  12  13
ENDBRANCH  11  12
ENDBRANCH  10  11
ENDBRANCH   1  10
TORSDOF 9
ENDMDL
MODEL      853
REMARK  Name = ZINC000112047706
REMARK                            x       y       z     vdW  Elec       q    Type
REMARK                         _______ _______ _______ _____ _____    ______ ____
ROOT
ATOM      1  N   LIG    1        2.212  -6.013  -3.799  0.00  0.00    -0.510 N 
ATOM      2  H   LIG    1        1.265  -6.362  -3.792  0.00  0.00    +0.430 HD
ATOM      3  H   LIG    1        2.700  -6.347  -2.982  0.00  0.00    +0.430 HD
ENDROOT
BRANCH   1   4
ATOM      4  C   LIG    1        2.900  -6.487  -5.008  0.00  0.00    +0.170 C 
ATOM      5  C   LIG    1        4.369  -6.062  -4.958  0.00  0.00    +0.090 C 
BRANCH   4   6
ATOM      6  C   LIG    1        2.812  -8.012  -5.080  0.00  0.00    +0.090 C 
BRANCH   6   7
ATOM      7  C   LIG    1        1.351  -8.431  -5.255  0.00  0.00    -0.090 C 
ATOM      8  C   LIG    1        0.973  -9.155  -6.549  0.00  0.00    +0.030 C 
ATOM      9  C   LIG    1        1.037  -9.929  -5.231  0.00  0.00    +0.030 C 
ENDBRANCH   6   7
ENDBRANCH   4   6
ENDBRANCH   1   4
BRANCH   1  10
ATOM     10  C   LIG    1        2.192  -4.544  -3.791  0.00  0.00    +0.250 C 
BRANCH  10  11
ATOM     11  C   LIG    1        1.476  -4.051  -2.532  0.00  0.00    +0.030 C 
BRANCH  11  12
ATOM     12  C   LIG    1        1.455  -2.521  -2.524  0.00  0.00    +0.020 C 
BRANCH  12  13
ATOM     13  C   LIG    1        0.739  -2.027  -1.265  0.00  0.00    +0.020 C 
BRANCH  13  14
ATOM     14  C   LIG    1        0.718  -0.497  -1.257  0.00  0.00    +0.000 C 
BRANCH  14  16
ATOM     15  C   LIG    1       -0.019   1.526   0.010  0.00  0.00    +0.000 C 
ATOM     16  C   LIG    1        0.002  -0.004   0.002  0.00  0.00    -0.010 C 
ENDBRANCH  14  16
ENDBRANCH  13  14
ENDBRANCH  12  13
ENDBRANCH  11  12
ENDBRANCH  10  11
ENDBRANCH   1  10
TORSDOF 9
ENDMDL
MODEL      854
REMARK  Name = ZINC000149783063
REMARK                            x       y       z     vdW  Elec       q    Type
REMARK                         _______ _______ _______ _____ _____    ______ ____
ROOT
ATOM      1  N   LIG    1        1.699  -1.091   1.360  0.00  0.00    -0.510 N 
ATOM      2  H   LIG    1        0.988  -1.682   1.765  0.00  0.00    +0.430 HD
ATOM      3  H   LIG    1        1.791  -0.250   1.909  0.00  0.00    +0.430 HD
ENDROOT
BRANCH   1   4
ATOM      4  C   LIG    1        2.981  -1.809   1.344  0.00  0.00    +0.160 C 
ATOM      5  C   LIG    1        2.809  -3.144   0.617  0.00  0.00    +0.040 C 
ATOM      6  C   LIG    1        4.144  -3.891   0.600  0.00  0.00    +0.040 C 
ATOM      7  C   LIG    1        4.603  -4.148   2.037  0.00  0.00    +0.030 C 
ATOM      8  C   LIG    1        4.775  -2.812   2.764  0.00  0.00    -0.050 C 
ATOM      9  C   LIG    1        5.823  -1.967   2.037  0.00  0.00    +0.030 C 
ATOM     10  C   LIG    1        5.234  -3.069   4.201  0.00  0.00    +0.040 C 
ATOM     11  C   LIG    1        3.440  -2.065   2.780  0.00  0.00    +0.050 C 
ENDBRANCH   1   4
BRANCH   1  12
ATOM     12  C   LIG    1        1.317  -0.740  -0.015  0.00  0.00    +0.300 C 
BRANCH  12  14
ATOM     13  C   LIG    1       -0.016   1.306   0.009  0.00  0.00    +0.120 C 
ATOM     14  C   LIG    1        0.002  -0.004   0.002  0.00  0.00    -0.200 C 
BRANCH  14  15
ATOM     15  C   LIG    1       -1.293  -0.775   0.010  0.00  0.00    +0.060 C 
ATOM     16  C   LIG    1       -1.680  -1.137  -1.425  0.00  0.00    +0.040 C 
ENDBRANCH  14  15
ENDBRANCH  12  14
ENDBRANCH   1  12
TORSDOF 4
ENDMDL
MODEL      855
REMARK  Name = ZINC000149783280
REMARK                            x       y       z     vdW  Elec       q    Type
REMARK                         _______ _______ _______ _____ _____    ______ ____
ROOT
ATOM      1  N   LIG    1        1.699  -1.091   1.360  0.00  0.00    -0.510 N 
ATOM      2  H   LIG    1        0.988  -1.682   1.765  0.00  0.00    +0.430 HD
ATOM      3  H   LIG    1        1.791  -0.250   1.909  0.00  0.00    +0.420 HD
ENDROOT
BRANCH   1   4
ATOM      4  C   LIG    1        2.981  -1.809   1.344  0.00  0.00    +0.160 C 
ATOM      5  C   LIG    1        4.083  -0.872   0.845  0.00  0.00    +0.040 C 
ATOM      6  C   LIG    1        5.418  -1.619   0.828  0.00  0.00    +0.040 C 
ATOM      7  C   LIG    1        5.754  -2.094   2.243  0.00  0.00    +0.030 C 
ATOM      8  C   LIG    1        4.652  -3.031   2.742  0.00  0.00    -0.050 C 
ATOM      9  C   LIG    1        4.989  -3.506   4.157  0.00  0.00    +0.040 C 
ATOM     10  C   LIG    1        4.549  -4.239   1.809  0.00  0.00    +0.030 C 
ATOM     11  C   LIG    1        3.317  -2.284   2.759  0.00  0.00    +0.050 C 
ENDBRANCH   1   4
BRANCH   1  12
ATOM     12  C   LIG    1        1.317  -0.740  -0.015  0.00  0.00    +0.310 C 
BRANCH  12  14
ATOM     13  C   LIG    1       -0.016   1.306   0.009  0.00  0.00    +0.120 C 
ATOM     14  C   LIG    1        0.002  -0.004   0.002  0.00  0.00    -0.200 C 
BRANCH  14  15
ATOM     15  C   LIG    1       -1.293  -0.775   0.010  0.00  0.00    +0.060 C 
ATOM     16  C   LIG    1       -1.680  -1.137  -1.425  0.00  0.00    +0.030 C 
ENDBRANCH  14  15
ENDBRANCH  12  14
ENDBRANCH   1  12
TORSDOF 4
ENDMDL
MODEL      856
REMARK  Name = ZINC000388838809
REMARK                            x       y       z     vdW  Elec       q    Type
REMARK                         _______ _______ _______ _____ _____    ______ ____
ROOT
ATOM      1  C   LIG    1       -4.000  -5.238  -3.533  0.00  0.00    +0.160 C 
ATOM      2  C   LIG    1       -5.363  -5.930  -3.597  0.00  0.00    +0.090 C 
ENDROOT
BRANCH   1   3
ATOM      3  N   LIG    1       -2.945  -6.247  -3.366  0.00  0.00    -0.510 N 
ATOM      4  H   LIG    1       -3.147  -6.814  -2.557  0.00  0.00    +0.420 HD
ATOM      5  H   LIG    1       -2.056  -5.787  -3.242  0.00  0.00    +0.420 HD
BRANCH   3   6
ATOM      6  C   LIG    1       -2.892  -7.100  -4.561  0.00  0.00    +0.160 C 
ATOM      7  C   LIG    1       -2.463  -6.263  -5.768  0.00  0.00    +0.090 C 
BRANCH   6   8
ATOM      8  C   LIG    1       -1.881  -8.227  -4.337  0.00  0.00    +0.050 C 
ATOM      9  C   LIG    1       -2.373  -9.138  -3.211  0.00  0.00    +0.030 C 
ENDBRANCH   6   8
ENDBRANCH   3   6
ENDBRANCH   1   3
BRANCH   1  10
ATOM     10  C   LIG    1       -3.974  -4.272  -2.346  0.00  0.00    +0.050 C 
BRANCH  10  11
ATOM     11  C   LIG    1       -2.659  -3.489  -2.355  0.00  0.00    +0.010 C 
BRANCH  11  12
ATOM     12  C   LIG    1       -2.633  -2.524  -1.168  0.00  0.00    +0.020 C 
BRANCH  12  13
ATOM     13  C   LIG    1       -1.319  -1.741  -1.176  0.00  0.00    +0.010 C 
BRANCH  13  14
ATOM     14  C   LIG    1       -1.293  -0.775   0.010  0.00  0.00    +0.040 C 
BRANCH  14  16
ATOM     15  C   LIG    1       -0.016   1.306   0.009  0.00  0.00    +0.020 C 
ATOM     16  C   LIG    1        0.002  -0.004   0.002  0.00  0.00    -0.060 C 
ENDBRANCH  14  16
ENDBRANCH  13  14
ENDBRANCH  12  13
ENDBRANCH  11  12
ENDBRANCH  10  11
ENDBRANCH   1  10
TORSDOF 9
ENDMDL
MODEL      857
REMARK  Name = ZINC000388838807
REMARK                            x       y       z     vdW  Elec       q    Type
REMARK                         _______ _______ _______ _____ _____    ______ ____
ROOT
ATOM      1  C   LIG    1       -3.171  -4.593  -3.697  0.00  0.00    +0.160 C 
ATOM      2  C   LIG    1       -4.393  -5.128  -2.948  0.00  0.00    +0.080 C 
ENDROOT
BRANCH   1   3
ATOM      3  N   LIG    1       -3.601  -3.982  -4.962  0.00  0.00    -0.510 N 
ATOM      4  H   LIG    1       -2.803  -3.579  -5.429  0.00  0.00    +0.420 HD
ATOM      5  H   LIG    1       -4.281  -3.261  -4.774  0.00  0.00    +0.420 HD
BRANCH   3   6
ATOM      6  C   LIG    1       -4.204  -5.010  -5.822  0.00  0.00    +0.160 C 
ATOM      7  C   LIG    1       -4.796  -4.349  -7.068  0.00  0.00    +0.090 C 
BRANCH   6   8
ATOM      8  C   LIG    1       -3.132  -6.018  -6.240  0.00  0.00    +0.040 C 
ATOM      9  C   LIG    1       -3.059  -7.144  -5.207  0.00  0.00    +0.030 C 
ENDBRANCH   6   8
ENDBRANCH   3   6
ENDBRANCH   1   3
BRANCH   1  10
ATOM     10  C   LIG    1       -2.467  -3.541  -2.837  0.00  0.00    +0.050 C 
BRANCH  10  11
ATOM     11  C   LIG    1       -1.177  -3.096  -3.531  0.00  0.00    +0.010 C 
BRANCH  11  12
ATOM     12  C   LIG    1       -0.473  -2.045  -2.671  0.00  0.00    +0.020 C 
BRANCH  12  13
ATOM     13  C   LIG    1        0.816  -1.600  -3.365  0.00  0.00    +0.010 C 
BRANCH  13  14
ATOM     14  C   LIG    1        1.521  -0.548  -2.505  0.00  0.00    +0.040 C 
BRANCH  14  16
ATOM     15  C   LIG    1        2.999   1.161  -3.431  0.00  0.00    +0.010 C 
ATOM     16  C   LIG    1        2.791  -0.110  -3.188  0.00  0.00    -0.060 C 
ENDBRANCH  14  16
ENDBRANCH  13  14
ENDBRANCH  12  13
ENDBRANCH  11  12
ENDBRANCH  10  11
ENDBRANCH   1  10
TORSDOF 9
ENDMDL
MODEL      858
REMARK  Name = ZINC000388838806
REMARK                            x       y       z     vdW  Elec       q    Type
REMARK                         _______ _______ _______ _____ _____    ______ ____
ROOT
ATOM      1  C   LIG    1       -4.300  -5.714  -3.356  0.00  0.00    +0.150 C 
ATOM      2  C   LIG    1       -5.457  -6.697  -3.546  0.00  0.00    +0.090 C 
ENDROOT
BRANCH   1   3
ATOM      3  N   LIG    1       -3.031  -6.453  -3.315  0.00  0.00    -0.510 N 
ATOM      4  H   LIG    1       -3.091  -7.187  -2.626  0.00  0.00    +0.420 HD
ATOM      5  H   LIG    1       -2.282  -5.822  -3.071  0.00  0.00    +0.420 HD
BRANCH   3   6
ATOM      6  C   LIG    1       -2.764  -7.040  -4.635  0.00  0.00    +0.160 C 
ATOM      7  C   LIG    1       -1.885  -8.281  -4.472  0.00  0.00    +0.090 C 
BRANCH   6   8
ATOM      8  C   LIG    1       -2.044  -6.016  -5.514  0.00  0.00    +0.050 C 
ATOM      9  C   LIG    1       -2.978  -4.837  -5.793  0.00  0.00    +0.030 C 
ENDBRANCH   6   8
ENDBRANCH   3   6
ENDBRANCH   1   3
BRANCH   1  10
ATOM     10  C   LIG    1       -4.489  -4.952  -2.042  0.00  0.00    +0.050 C 
BRANCH  10  11
ATOM     11  C   LIG    1       -3.402  -3.883  -1.912  0.00  0.00    +0.010 C 
BRANCH  11  12
ATOM     12  C   LIG    1       -3.590  -3.121  -0.599  0.00  0.00    +0.020 C 
BRANCH  12  13
ATOM     13  C   LIG    1       -2.504  -2.052  -0.469  0.00  0.00    +0.010 C 
BRANCH  13  14
ATOM     14  C   LIG    1       -2.692  -1.290   0.844  0.00  0.00    +0.040 C 
BRANCH  14  16
ATOM     15  C   LIG    1       -1.954   1.015   1.167  0.00  0.00    +0.020 C 
ATOM     16  C   LIG    1       -1.622  -0.237   0.972  0.00  0.00    -0.060 C 
ENDBRANCH  14  16
ENDBRANCH  13  14
ENDBRANCH  12  13
ENDBRANCH  11  12
ENDBRANCH  10  11
ENDBRANCH   1  10
TORSDOF 9
ENDMDL
MODEL      859
REMARK  Name = ZINC000388838805
REMARK                            x       y       z     vdW  Elec       q    Type
REMARK                         _______ _______ _______ _____ _____    ______ ____
ROOT
ATOM      1  C   LIG    1       -4.000  -5.238  -3.533  0.00  0.00    +0.160 C 
ATOM      2  C   LIG    1       -5.256  -6.108  -3.455  0.00  0.00    +0.090 C 
ENDROOT
BRANCH   1   3
ATOM      3  N   LIG    1       -4.011  -4.472  -4.787  0.00  0.00    -0.510 N 
ATOM      4  H   LIG    1       -3.226  -3.838  -4.801  0.00  0.00    +0.420 HD
ATOM      5  H   LIG    1       -4.870  -3.946  -4.852  0.00  0.00    +0.420 HD
BRANCH   3   6
ATOM      6  C   LIG    1       -3.916  -5.396  -5.925  0.00  0.00    +0.160 C 
ATOM      7  C   LIG    1       -2.559  -6.103  -5.895  0.00  0.00    +0.090 C 
BRANCH   6   8
ATOM      8  C   LIG    1       -4.053  -4.611  -7.231  0.00  0.00    +0.050 C 
ATOM      9  C   LIG    1       -5.455  -4.006  -7.318  0.00  0.00    +0.030 C 
ENDBRANCH   6   8
ENDBRANCH   3   6
ENDBRANCH   1   3
BRANCH   1  10
ATOM     10  C   LIG    1       -3.974  -4.272  -2.346  0.00  0.00    +0.050 C 
BRANCH  10  11
ATOM     11  C   LIG    1       -2.659  -3.489  -2.355  0.00  0.00    +0.010 C 
BRANCH  11  12
ATOM     12  C   LIG    1       -2.633  -2.524  -1.168  0.00  0.00    +0.020 C 
BRANCH  12  13
ATOM     13  C   LIG    1       -1.319  -1.741  -1.176  0.00  0.00    +0.010 C 
BRANCH  13  14
ATOM     14  C   LIG    1       -1.293  -0.775   0.010  0.00  0.00    +0.040 C 
BRANCH  14  16
ATOM     15  C   LIG    1       -0.016   1.306   0.009  0.00  0.00    +0.010 C 
ATOM     16  C   LIG    1        0.002  -0.004   0.002  0.00  0.00    -0.060 C 
ENDBRANCH  14  16
ENDBRANCH  13  14
ENDBRANCH  12  13
ENDBRANCH  11  12
ENDBRANCH  10  11
ENDBRANCH   1  10
TORSDOF 9
ENDMDL
