MODEL        1
REMARK  Name = ZINC000608491952
REMARK                            x       y       z     vdW  Elec       q    Type
REMARK                         _______ _______ _______ _____ _____    ______ ____
ROOT
ATOM      1  N   LIG    1        1.545  -1.488   1.233  0.00  0.00    -0.380 N 
ATOM      2  H   LIG    1        1.730  -0.860   2.001  0.00  0.00    +0.420 HD
ENDROOT
BRANCH   1   3
ATOM      3  C   LIG    1        0.389  -2.333   1.560  0.00  0.00    +0.240 C 
ATOM      4  C   LIG    1        0.017  -3.183   0.344  0.00  0.00    +0.080 C 
ENDBRANCH   1   3
BRANCH   1   5
ATOM      5  C   LIG    1        1.255  -0.709   0.022  0.00  0.00    +0.300 C 
BRANCH   5   7
ATOM      6  C   LIG    1        0.411   1.485   0.681  0.00  0.00    +0.120 C 
ATOM      7  C   LIG    1        0.137   0.261   0.304  0.00  0.00    -0.190 C 
ATOM      8  C   LIG    1       -1.297  -0.177   0.153  0.00  0.00    +0.100 C 
ENDBRANCH   5   7
ENDBRANCH   1   5
BRANCH   1   9
ATOM      9  C   LIG    1        2.721  -2.336   1.000  0.00  0.00    +0.240 C 
BRANCH   9  10
ATOM     10  C   LIG    1        3.120  -3.026   2.306  0.00  0.00    +0.040 C 
BRANCH  10  11
ATOM     11  C   LIG    1        4.419  -3.805   2.096  0.00  0.00    -0.060 C 
ATOM     12  C   LIG    1        5.528  -2.842   1.669  0.00  0.00    +0.020 C 
ATOM     13  C   LIG    1        4.211  -4.859   1.006  0.00  0.00    +0.020 C 
BRANCH  11  14
ATOM     14  C   LIG    1        4.818  -4.495   3.402  0.00  0.00    +0.030 C 
ATOM     15  C   LIG    1        6.117  -5.275   3.192  0.00  0.00    +0.020 C 
ENDBRANCH  11  14
ENDBRANCH  10  11
ENDBRANCH   9  10
ENDBRANCH   1   9
TORSDOF 7
ENDMDL
MODEL        2
REMARK  Name = ZINC000608501717
REMARK                            x       y       z     vdW  Elec       q    Type
REMARK                         _______ _______ _______ _____ _____    ______ ____
ROOT
ATOM      1  N   LIG    1       -2.658  -3.451  -2.307  0.00  0.00    -0.390 N 
ATOM      2  C   LIG    1       -2.670  -2.685  -3.561  0.00  0.00    +0.310 C 
ATOM      3  H   LIG    1       -1.839  -4.039  -2.280  0.00  0.00    +0.420 HD
ENDROOT
BRANCH   1   4
ATOM      4  C   LIG    1       -2.633  -2.524  -1.168  0.00  0.00    +0.250 C 
BRANCH   4   5
ATOM      5  C   LIG    1       -1.319  -1.741  -1.176  0.00  0.00    +0.040 C 
BRANCH   5   6
ATOM      6  C   LIG    1       -1.293  -0.775   0.010  0.00  0.00    +0.070 C 
BRANCH   6   8
ATOM      7  C   LIG    1       -0.016   1.306   0.009  0.00  0.00    +0.030 C 
ATOM      8  C   LIG    1        0.002  -0.004   0.002  0.00  0.00    -0.070 C 
ENDBRANCH   6   8
ENDBRANCH   5   6
ENDBRANCH   4   5
ENDBRANCH   1   4
BRANCH   1   9
ATOM      9  C   LIG    1       -3.864  -4.286  -2.232  0.00  0.00    +0.240 C 
BRANCH   9  10
ATOM     10  C   LIG    1       -3.829  -5.334  -3.347  0.00  0.00    +0.040 C 
BRANCH  10  11
ATOM     11  C   LIG    1       -5.085  -6.204  -3.269  0.00  0.00    -0.060 C 
ATOM     12  C   LIG    1       -6.326  -5.324  -3.435  0.00  0.00    +0.020 C 
ATOM     13  C   LIG    1       -5.136  -6.906  -1.910  0.00  0.00    +0.020 C 
BRANCH  11  14
ATOM     14  C   LIG    1       -5.049  -7.252  -4.383  0.00  0.00    +0.030 C 
ATOM     15  C   LIG    1       -6.305  -8.122  -4.305  0.00  0.00    +0.020 C 
ENDBRANCH  11  14
ENDBRANCH  10  11
ENDBRANCH   9  10
ENDBRANCH   1   9
TORSDOF 8
ENDMDL
MODEL        3
REMARK  Name = ZINC000114220356
REMARK                            x       y       z     vdW  Elec       q    Type
REMARK                         _______ _______ _______ _____ _____    ______ ____
ROOT
ATOM      1  C   LIG    1        2.264  -4.584   3.704  0.00  0.00    +0.020 C 
ENDROOT
BRANCH   1   2
ATOM      2  C   LIG    1        1.524  -4.077   2.464  0.00  0.00    +0.020 C 
BRANCH   2   3
ATOM      3  C   LIG    1        1.503  -2.548   2.473  0.00  0.00    +0.000 C 
BRANCH   3   4
ATOM      4  C   LIG    1        0.763  -2.041   1.233  0.00  0.00    +0.000 C 
BRANCH   4   5
ATOM      5  C   LIG    1        0.742  -0.511   1.242  0.00  0.00    +0.000 C 
BRANCH   5   7
ATOM      6  C   LIG    1       -0.019   1.526   0.010  0.00  0.00    +0.000 C 
ATOM      7  C   LIG    1        0.002  -0.004   0.002  0.00  0.00    -0.010 C 
ENDBRANCH   5   7
ENDBRANCH   4   5
ENDBRANCH   3   4
ENDBRANCH   2   3
ENDBRANCH   1   2
BRANCH   1   8
ATOM      8  C   LIG    1        2.284  -6.114   3.695  0.00  0.00    +0.030 C 
BRANCH   8   9
ATOM      9  C   LIG    1        3.024  -6.621   4.935  0.00  0.00    +0.250 C 
BRANCH   9  10
ATOM     10  N   LIG    1        3.044  -8.090   4.927  0.00  0.00    -0.390 N 
ATOM     11  C   LIG    1        3.834  -8.562   3.782  0.00  0.00    +0.300 C 
ATOM     12  H   LIG    1        2.100  -8.438   4.851  0.00  0.00    +0.420 HD
BRANCH  10  13
ATOM     13  C   LIG    1        3.648  -8.578   6.174  0.00  0.00    +0.250 C 
ATOM     14  C   LIG    1        3.556 -10.105   6.221  0.00  0.00    +0.080 C 
ENDBRANCH  10  13
ENDBRANCH   9  10
ENDBRANCH   8   9
ENDBRANCH   1   8
TORSDOF 9
ENDMDL
MODEL        4
REMARK  Name = ZINC000308222819
REMARK                            x       y       z     vdW  Elec       q    Type
REMARK                         _______ _______ _______ _____ _____    ______ ____
ROOT
ATOM      1  C   LIG    1        2.154  -4.587   3.595  0.00  0.00    +0.250 C 
ENDROOT
BRANCH   1   2
ATOM      2  N   LIG    1        2.421  -6.031   3.624  0.00  0.00    -0.390 N 
ATOM      3  C   LIG    1        3.381  -6.373   2.567  0.00  0.00    +0.310 C 
ATOM      4  H   LIG    1        1.560  -6.535   3.473  0.00  0.00    +0.420 HD
BRANCH   2   5
ATOM      5  C   LIG    1        2.980  -6.399   4.932  0.00  0.00    +0.250 C 
BRANCH   5   6
ATOM      6  C   LIG    1        3.128  -7.920   5.013  0.00  0.00    -0.030 C 
ATOM      7  C   LIG    1        1.743  -8.570   4.979  0.00  0.00    +0.030 C 
ATOM      8  C   LIG    1        3.834  -8.295   6.318  0.00  0.00    +0.070 C 
ENDBRANCH   5   6
ENDBRANCH   2   5
ENDBRANCH   1   2
BRANCH   1   9
ATOM      9  C   LIG    1        1.457  -4.223   2.282  0.00  0.00    +0.030 C 
BRANCH   9  10
ATOM     10  C   LIG    1        1.180  -2.719   2.252  0.00  0.00    +0.020 C 
BRANCH  10  11
ATOM     11  C   LIG    1        0.483  -2.356   0.939  0.00  0.00    +0.020 C 
BRANCH  11  12
ATOM     12  C   LIG    1        0.205  -0.851   0.909  0.00  0.00    +0.000 C 
BRANCH  12  14
ATOM     13  C   LIG    1       -0.769   1.016  -0.435  0.00  0.00    +0.000 C 
ATOM     14  C   LIG    1       -0.492  -0.488  -0.404  0.00  0.00    -0.010 C 
ENDBRANCH  12  14
ENDBRANCH  11  12
ENDBRANCH  10  11
ENDBRANCH   9  10
ENDBRANCH   1   9
TORSDOF 8
ENDMDL
MODEL        5
REMARK  Name = ZINC000802638380
REMARK                            x       y       z     vdW  Elec       q    Type
REMARK                         _______ _______ _______ _____ _____    ______ ____
ROOT
ATOM      1  N   LIG    1        1.176  -2.023   1.220  0.00  0.00    -0.380 N 
ATOM      2  H   LIG    1        0.472  -2.745   1.212  0.00  0.00    +0.420 HD
ENDROOT
BRANCH   1   3
ATOM      3  C   LIG    1        0.810  -0.994   2.204  0.00  0.00    +0.160 C 
ATOM      4  C   LIG    1       -0.615  -0.511   1.930  0.00  0.00    +0.080 C 
ATOM      5  C   LIG    1        1.779   0.185   2.093  0.00  0.00    +0.080 C 
ENDBRANCH   1   3
BRANCH   1   6
ATOM      6  C   LIG    1        1.268  -1.414  -0.114  0.00  0.00    +0.290 C 
BRANCH   6   8
ATOM      7  C   LIG    1       -0.301   0.246  -0.977  0.00  0.00    +0.110 C 
ATOM      8  C   LIG    1       -0.104  -0.981  -0.564  0.00  0.00    -0.080 C 
ENDBRANCH   6   8
ENDBRANCH   1   6
BRANCH   1   9
ATOM      9  C   LIG    1        2.474  -2.607   1.582  0.00  0.00    +0.240 C 
BRANCH   9  10
ATOM     10  C   LIG    1        2.355  -3.315   2.933  0.00  0.00    -0.010 C 
ATOM     11  C   LIG    1        1.310  -4.428   2.836  0.00  0.00    +0.050 C 
BRANCH  10  12
ATOM     12  C   LIG    1        3.709  -3.918   3.314  0.00  0.00    -0.060 C 
ATOM     13  C   LIG    1        4.136  -4.927   2.245  0.00  0.00    +0.030 C 
ATOM     14  C   LIG    1        3.591  -4.626   4.665  0.00  0.00    +0.040 C 
ATOM     15  C   LIG    1        4.754  -2.805   3.411  0.00  0.00    +0.030 C 
ENDBRANCH  10  12
ENDBRANCH   9  10
ENDBRANCH   1   9
TORSDOF 6
ENDMDL
MODEL        6
REMARK  Name = ZINC000681402190
REMARK                            x       y       z     vdW  Elec       q    Type
REMARK                         _______ _______ _______ _____ _____    ______ ____
ROOT
ATOM      1  N   LIG    1       -3.064  -2.058  -1.472  0.00  0.00    -0.350 N 
ATOM      2  H   LIG    1       -2.933  -2.830  -0.837  0.00  0.00    +0.410 HD
ENDROOT
BRANCH   1   3
ATOM      3  C   LIG    1       -4.290  -1.332  -1.115  0.00  0.00    +0.080 C 
ATOM      4  C   LIG    1       -5.287  -2.039  -0.195  0.00  0.00    +0.100 C 
ATOM      5  C   LIG    1       -4.444  -0.878   0.338  0.00  0.00    +0.090 C 
ENDBRANCH   1   3
BRANCH   1   6
ATOM      6  C   LIG    1       -1.913  -1.149  -1.382  0.00  0.00    +0.260 C 
BRANCH   6   7
ATOM      7  C   LIG    1       -1.693  -0.749   0.078  0.00  0.00    +0.080 C 
BRANCH   7   9
ATOM      8  C   LIG    1       -0.453   1.353   0.168  0.00  0.00    +0.050 C 
ATOM      9  C   LIG    1       -0.416   0.044   0.195  0.00  0.00    -0.150 C 
ATOM     10  C   LIG    1        0.903  -0.670   0.342  0.00  0.00    +0.070 C 
ENDBRANCH   7   9
ENDBRANCH   6   7
ENDBRANCH   1   6
BRANCH   1  11
ATOM     11  C   LIG    1       -3.179  -2.567  -2.845  0.00  0.00    +0.170 C 
BRANCH  11  12
ATOM     12  C   LIG    1       -2.200  -3.727  -3.043  0.00  0.00    +0.050 C 
ATOM     13  C   LIG    1       -2.607  -4.896  -2.144  0.00  0.00    +0.030 C 
ENDBRANCH  11  12
BRANCH  11  14
ATOM     14  C   LIG    1       -2.849  -1.448  -3.834  0.00  0.00    +0.050 C 
ATOM     15  C   LIG    1       -3.884  -0.329  -3.702  0.00  0.00    +0.020 C 
ENDBRANCH  11  14
ENDBRANCH   1  11
TORSDOF 7
ENDMDL
MODEL        7
REMARK  Name = ZINC000681399196
REMARK                            x       y       z     vdW  Elec       q    Type
REMARK                         _______ _______ _______ _____ _____    ______ ____
ROOT
ATOM      1  N   LIG    1       -2.914  -2.023  -1.448  0.00  0.00    -0.380 N 
ATOM      2  H   LIG    1       -3.769  -1.613  -1.106  0.00  0.00    +0.420 HD
ENDROOT
BRANCH   1   3
ATOM      3  C   LIG    1       -3.081  -2.402  -2.857  0.00  0.00    +0.160 C 
ATOM      4  C   LIG    1       -4.219  -3.417  -2.981  0.00  0.00    +0.040 C 
ATOM      5  C   LIG    1       -4.394  -3.812  -4.449  0.00  0.00    +0.030 C 
ATOM      6  C   LIG    1       -4.729  -2.568  -5.274  0.00  0.00    +0.020 C 
ATOM      7  C   LIG    1       -3.591  -1.552  -5.151  0.00  0.00    +0.030 C 
ATOM      8  C   LIG    1       -3.416  -1.158  -3.683  0.00  0.00    +0.040 C 
ENDBRANCH   1   3
BRANCH   1   9
ATOM      9  C   LIG    1       -2.592  -3.217  -0.655  0.00  0.00    +0.240 C 
ATOM     10  C   LIG    1       -1.360  -3.905  -1.246  0.00  0.00    +0.080 C 
ENDBRANCH   1   9
BRANCH   1  11
ATOM     11  C   LIG    1       -1.821  -1.048  -1.329  0.00  0.00    +0.240 C 
BRANCH  11  12
ATOM     12  C   LIG    1       -1.718  -0.571   0.121  0.00  0.00    +0.070 C 
BRANCH  12  14
ATOM     13  C   LIG    1       -1.070   1.782   0.159  0.00  0.00    +0.050 C 
ATOM     14  C   LIG    1       -0.693   0.529   0.216  0.00  0.00    -0.150 C 
ATOM     15  C   LIG    1        0.766   0.188   0.377  0.00  0.00    +0.080 C 
ENDBRANCH  12  14
ENDBRANCH  11  12
ENDBRANCH   1  11
TORSDOF 5
ENDMDL
MODEL        8
REMARK  Name = ZINC000681399175
REMARK                            x       y       z     vdW  Elec       q    Type
REMARK                         _______ _______ _______ _____ _____    ______ ____
ROOT
ATOM      1  N   LIG    1       -2.722  -1.966  -1.206  0.00  0.00    -0.380 N 
ATOM      2  H   LIG    1       -3.053  -2.859  -0.871  0.00  0.00    +0.420 HD
ENDROOT
BRANCH   1   3
ATOM      3  C   LIG    1       -3.615  -0.903  -0.727  0.00  0.00    +0.160 C 
ATOM      4  C   LIG    1       -5.037  -1.453  -0.592  0.00  0.00    +0.070 C 
ATOM      5  C   LIG    1       -3.610   0.256  -1.725  0.00  0.00    +0.080 C 
ENDBRANCH   1   3
BRANCH   1   6
ATOM      6  C   LIG    1       -1.363  -1.728  -0.702  0.00  0.00    +0.250 C 
BRANCH   6   7
ATOM      7  C   LIG    1       -1.364  -1.806   0.826  0.00  0.00    +0.070 C 
BRANCH   7   9
ATOM      8  C   LIG    1        0.521  -0.530   1.708  0.00  0.00    +0.050 C 
ATOM      9  C   LIG    1        0.050  -1.694   1.336  0.00  0.00    -0.150 C 
ATOM     10  C   LIG    1        0.920  -2.921   1.418  0.00  0.00    +0.070 C 
ENDBRANCH   7   9
ENDBRANCH   6   7
ENDBRANCH   1   6
BRANCH   1  11
ATOM     11  C   LIG    1       -2.707  -1.968  -2.674  0.00  0.00    +0.250 C 
BRANCH  11  12
ATOM     12  C   LIG    1       -4.086  -2.372  -3.198  0.00  0.00    +0.030 C 
BRANCH  12  13
ATOM     13  C   LIG    1       -4.030  -2.522  -4.720  0.00  0.00    +0.020 C 
BRANCH  13  14
ATOM     14  C   LIG    1       -5.410  -2.925  -5.244  0.00  0.00    +0.010 C 
ATOM     15  C   LIG    1       -5.354  -3.075  -6.766  0.00  0.00    +0.020 C 
ENDBRANCH  13  14
ENDBRANCH  12  13
ENDBRANCH  11  12
ENDBRANCH   1  11
TORSDOF 8
ENDMDL
MODEL        9
REMARK  Name = ZINC000681401449
REMARK                            x       y       z     vdW  Elec       q    Type
REMARK                         _______ _______ _______ _____ _____    ______ ____
ROOT
ATOM      1  N   LIG    1       -2.942  -1.888  -1.417  0.00  0.00    -0.380 N 
ATOM      2  C   LIG    1       -4.068  -1.182  -0.791  0.00  0.00    +0.310 C 
ATOM      3  H   LIG    1       -2.107  -1.328  -1.336  0.00  0.00    +0.420 HD
ENDROOT
BRANCH   1   4
ATOM      4  C   LIG    1       -3.240  -2.122  -2.837  0.00  0.00    +0.170 C 
ATOM      5  C   LIG    1       -4.569  -2.814  -2.967  0.00  0.00    +0.030 C 
ATOM      6  C   LIG    1       -4.609  -3.795  -4.154  0.00  0.00    +0.030 C 
ATOM      7  C   LIG    1       -3.928  -3.233  -5.417  0.00  0.00    +0.000 C 
ATOM      8  C   LIG    1       -4.258  -1.784  -5.652  0.00  0.00    +0.020 C 
ATOM      9  C   LIG    1       -3.148  -0.921  -5.018  0.00  0.00    +0.020 C 
ATOM     10  C   LIG    1       -3.315  -0.772  -3.579  0.00  0.00    +0.040 C 
ENDBRANCH   1   4
BRANCH   1  11
ATOM     11  C   LIG    1       -2.735  -3.176  -0.742  0.00  0.00    +0.250 C 
BRANCH  11  12
ATOM     12  C   LIG    1       -2.280  -2.930   0.698  0.00  0.00    +0.070 C 
BRANCH  12  14
ATOM     13  C   LIG    1       -0.870  -4.782   1.435  0.00  0.00    +0.050 C 
ATOM     14  C   LIG    1       -2.067  -4.251   1.391  0.00  0.00    -0.150 C 
ATOM     15  C   LIG    1       -3.231  -4.960   2.034  0.00  0.00    +0.080 C 
ENDBRANCH  12  14
ENDBRANCH  11  12
ENDBRANCH   1  11
TORSDOF 4
ENDMDL
MODEL       10
REMARK  Name = ZINC000681404112
REMARK                            x       y       z     vdW  Elec       q    Type
REMARK                         _______ _______ _______ _____ _____    ______ ____
ROOT
ATOM      1  N   LIG    1        2.904  -1.897   1.433  0.00  0.00    -0.380 N 
ATOM      2  C   LIG    1        2.704  -3.249   0.867  0.00  0.00    +0.250 C 
ATOM      3  C   LIG    1        3.872  -4.212   1.145  0.00  0.00    +0.060 C 
ATOM      4  C   LIG    1        5.226  -3.581   0.962  0.00  0.00    +0.020 C 
ATOM      5  C   LIG    1        5.695  -3.000   2.320  0.00  0.00    +0.030 C 
ATOM      6  C   LIG    1        4.991  -1.761   2.629  0.00  0.00    +0.050 C 
ATOM      7  C   LIG    1        3.470  -1.949   2.759  0.00  0.00    +0.160 C 
ATOM      8  H   LIG    1        3.526  -1.379   0.831  0.00  0.00    +0.420 HD
ENDROOT
BRANCH   7   9
ATOM      9  C   LIG    1        2.881  -0.826   3.617  0.00  0.00    +0.030 C 
ATOM     10  C   LIG    1        3.442  -0.923   5.037  0.00  0.00    +0.060 C 
ENDBRANCH   7   9
BRANCH   1  11
ATOM     11  C   LIG    1        1.609  -1.207   1.492  0.00  0.00    +0.250 C 
BRANCH  11  12
ATOM     12  C   LIG    1        1.040  -1.069   0.078  0.00  0.00    +0.070 C 
BRANCH  12  14
ATOM     13  C   LIG    1       -0.350   0.935  -0.048  0.00  0.00    +0.050 C 
ATOM     14  C   LIG    1       -0.289  -0.360   0.139  0.00  0.00    -0.150 C 
ATOM     15  C   LIG    1       -1.548  -1.142   0.414  0.00  0.00    +0.080 C 
ENDBRANCH  12  14
ENDBRANCH  11  12
ENDBRANCH   1  11
TORSDOF 4
ENDMDL
MODEL       11
REMARK  Name = ZINC000681405937
REMARK                            x       y       z     vdW  Elec       q    Type
REMARK                         _______ _______ _______ _____ _____    ______ ____
ROOT
ATOM      1  N   LIG    1       -2.842  -1.888  -1.016  0.00  0.00    -0.380 N 
ATOM      2  H   LIG    1       -3.686  -1.675  -0.505  0.00  0.00    +0.420 HD
ENDROOT
BRANCH   1   3
ATOM      3  C   LIG    1       -3.151  -1.997  -2.447  0.00  0.00    +0.160 C 
ATOM      4  C   LIG    1       -4.388  -2.902  -2.668  0.00  0.00    +0.040 C 
ATOM      5  C   LIG    1       -4.916  -2.430  -4.045  0.00  0.00    +0.040 C 
ATOM      6  C   LIG    1       -4.701  -0.903  -4.030  0.00  0.00    +0.030 C 
ATOM      7  C   LIG    1       -3.579  -0.627  -3.014  0.00  0.00    +0.030 C 
ENDBRANCH   1   3
BRANCH   1   8
ATOM      8  C   LIG    1       -2.287  -3.160  -0.535  0.00  0.00    +0.160 C 
ATOM      9  C   LIG    1       -1.097  -3.559  -1.411  0.00  0.00    +0.090 C 
ATOM     10  C   LIG    1       -3.362  -4.246  -0.610  0.00  0.00    +0.080 C 
ENDBRANCH   1   8
BRANCH   1  11
ATOM     11  C   LIG    1       -1.860  -0.815  -0.807  0.00  0.00    +0.250 C 
BRANCH  11  12
ATOM     12  C   LIG    1       -1.649  -0.601   0.693  0.00  0.00    +0.070 C 
BRANCH  12  14
ATOM     13  C   LIG    1       -0.913   1.692   1.093  0.00  0.00    +0.050 C 
ATOM     14  C   LIG    1       -0.580   0.439   0.907  0.00  0.00    -0.150 C 
ATOM     15  C   LIG    1        0.872   0.037   0.907  0.00  0.00    +0.080 C 
ENDBRANCH  12  14
ENDBRANCH  11  12
ENDBRANCH   1  11
TORSDOF 5
ENDMDL
MODEL       12
REMARK  Name = ZINC000681404114
REMARK                            x       y       z     vdW  Elec       q    Type
REMARK                         _______ _______ _______ _____ _____    ______ ____
ROOT
ATOM      1  N   LIG    1        2.919  -1.851   1.430  0.00  0.00    -0.380 N 
ATOM      2  C   LIG    1        2.718  -3.179   0.811  0.00  0.00    +0.250 C 
ATOM      3  C   LIG    1        3.877  -4.113   1.032  0.00  0.00    +0.050 C 
ATOM      4  C   LIG    1        3.573  -4.974   2.277  0.00  0.00    +0.030 C 
ATOM      5  C   LIG    1        3.810  -4.248   3.518  0.00  0.00    +0.030 C 
ATOM      6  C   LIG    1        2.915  -2.995   3.640  0.00  0.00    +0.050 C 
ATOM      7  C   LIG    1        3.506  -1.911   2.786  0.00  0.00    +0.160 C 
ATOM      8  H   LIG    1        3.530  -1.309   0.838  0.00  0.00    +0.420 HD
ENDROOT
BRANCH   7   9
ATOM      9  C   LIG    1        3.279  -0.563   3.475  0.00  0.00    +0.040 C 
ATOM     10  C   LIG    1        3.953   0.545   2.663  0.00  0.00    +0.020 C 
ENDBRANCH   7   9
BRANCH   1  11
ATOM     11  C   LIG    1        1.620  -1.170   1.511  0.00  0.00    +0.250 C 
BRANCH  11  12
ATOM     12  C   LIG    1        1.032  -1.025   0.106  0.00  0.00    +0.070 C 
BRANCH  12  14
ATOM     13  C   LIG    1       -0.372   0.970   0.013  0.00  0.00    +0.050 C 
ATOM     14  C   LIG    1       -0.300  -0.326   0.188  0.00  0.00    -0.150 C 
ATOM     15  C   LIG    1       -1.550  -1.118   0.473  0.00  0.00    +0.080 C 
ENDBRANCH  12  14
ENDBRANCH  11  12
ENDBRANCH   1  11
TORSDOF 4
ENDMDL
MODEL       13
REMARK  Name = ZINC000681403875
REMARK                            x       y       z     vdW  Elec       q    Type
REMARK                         _______ _______ _______ _____ _____    ______ ____
ROOT
ATOM      1  N   LIG    1        4.143  -5.127   3.433  0.00  0.00    -0.390 N 
ATOM      2  C   LIG    1        4.134  -4.375   4.695  0.00  0.00    +0.310 C 
ATOM      3  H   LIG    1        3.340  -5.737   3.399  0.00  0.00    +0.420 HD
ENDROOT
BRANCH   1   4
ATOM      4  C   LIG    1        4.093  -4.188   2.304  0.00  0.00    +0.250 C 
BRANCH   4   5
ATOM      5  C   LIG    1        2.757  -3.441   2.321  0.00  0.00    +0.030 C 
BRANCH   5   6
ATOM      6  C   LIG    1        2.705  -2.464   1.145  0.00  0.00    +0.020 C 
BRANCH   6   7
ATOM      7  C   LIG    1        1.370  -1.717   1.161  0.00  0.00    +0.020 C 
BRANCH   7   8
ATOM      8  C   LIG    1        1.317  -0.740  -0.015  0.00  0.00    +0.050 C 
BRANCH   8  10
ATOM      9  C   LIG    1       -0.016   1.306   0.009  0.00  0.00    +0.020 C 
ATOM     10  C   LIG    1        0.002  -0.004   0.002  0.00  0.00    -0.060 C 
ENDBRANCH   8  10
ENDBRANCH   7   8
ENDBRANCH   6   7
ENDBRANCH   5   6
ENDBRANCH   4   5
ENDBRANCH   1   4
BRANCH   1  11
ATOM     11  C   LIG    1        5.371  -5.928   3.349  0.00  0.00    +0.250 C 
BRANCH  11  12
ATOM     12  C   LIG    1        5.364  -6.989   4.452  0.00  0.00    +0.070 C 
BRANCH  12  13
ATOM     13  C   LIG    1        6.624  -7.811   4.366  0.00  0.00    -0.150 C 
ATOM     14  C   LIG    1        6.692  -8.991   3.431  0.00  0.00    +0.080 C 
ATOM     15  C   LIG    1        7.661  -7.500   5.104  0.00  0.00    +0.050 C 
ENDBRANCH  12  13
ENDBRANCH  11  12
ENDBRANCH   1  11
TORSDOF 9
ENDMDL
MODEL       14
REMARK  Name = ZINC000681412780
REMARK                            x       y       z     vdW  Elec       q    Type
REMARK                         _______ _______ _______ _____ _____    ______ ____
ROOT
ATOM      1  N   LIG    1        2.939  -1.828   1.422  0.00  0.00    -0.380 N 
ATOM      2  C   LIG    1        2.741  -3.158   0.834  0.00  0.00    +0.250 C 
ATOM      3  C   LIG    1        4.091  -3.863   0.691  0.00  0.00    +0.050 C 
ATOM      4  C   LIG    1        4.735  -4.005   2.073  0.00  0.00    +0.030 C 
ATOM      5  C   LIG    1        4.869  -2.618   2.709  0.00  0.00    +0.060 C 
ATOM      6  C   LIG    1        3.489  -1.961   2.777  0.00  0.00    +0.170 C 
ATOM      7  H   LIG    1        3.581  -1.300   0.850  0.00  0.00    +0.420 HD
ENDROOT
BRANCH   1   8
ATOM      8  C   LIG    1        1.650  -1.125   1.485  0.00  0.00    +0.250 C 
BRANCH   8   9
ATOM      9  C   LIG    1        1.133  -0.881   0.067  0.00  0.00    +0.070 C 
BRANCH   9  11
ATOM     10  C   LIG    1       -0.228   1.146   0.034  0.00  0.00    +0.050 C 
ATOM     11  C   LIG    1       -0.189  -0.160   0.131  0.00  0.00    -0.150 C 
ATOM     12  C   LIG    1       -1.466  -0.941   0.307  0.00  0.00    +0.080 C 
ENDBRANCH   9  11
ENDBRANCH   8   9
ENDBRANCH   1   8
BRANCH   6  13
ATOM     13  C   LIG    1        3.616  -0.574   3.410  0.00  0.00    +0.030 C 
BRANCH  13  14
ATOM     14  C   LIG    1        4.135  -0.714   4.843  0.00  0.00    +0.030 C 
ATOM     15  C   LIG    1        4.136   0.658   5.521  0.00  0.00    +0.030 C 
ENDBRANCH  13  14
ENDBRANCH   6  13
TORSDOF 5
ENDMDL
MODEL       15
REMARK  Name = ZINC000681412781
REMARK                            x       y       z     vdW  Elec       q    Type
REMARK                         _______ _______ _______ _____ _____    ______ ____
ROOT
ATOM      1  N   LIG    1        2.997  -1.823   1.401  0.00  0.00    -0.380 N 
ATOM      2  C   LIG    1        2.831  -3.102   0.700  0.00  0.00    +0.250 C 
ATOM      3  C   LIG    1        1.729  -3.920   1.377  0.00  0.00    +0.050 C 
ATOM      4  C   LIG    1        2.117  -4.181   2.835  0.00  0.00    +0.030 C 
ATOM      5  C   LIG    1        2.359  -2.842   3.536  0.00  0.00    +0.060 C 
ATOM      6  C   LIG    1        3.437  -2.066   2.780  0.00  0.00    +0.170 C 
ATOM      7  H   LIG    1        3.687  -1.265   0.921  0.00  0.00    +0.420 HD
ENDROOT
BRANCH   1   8
ATOM      8  C   LIG    1        1.715  -1.106   1.417  0.00  0.00    +0.250 C 
BRANCH   8   9
ATOM      9  C   LIG    1        1.317  -0.740  -0.015  0.00  0.00    +0.070 C 
BRANCH   9  11
ATOM     10  C   LIG    1       -0.016   1.306   0.009  0.00  0.00    +0.050 C 
ATOM     11  C   LIG    1        0.002  -0.004   0.002  0.00  0.00    -0.150 C 
ATOM     12  C   LIG    1       -1.293  -0.775   0.010  0.00  0.00    +0.080 C 
ENDBRANCH   9  11
ENDBRANCH   8   9
ENDBRANCH   1   8
BRANCH   6  13
ATOM     13  C   LIG    1        3.683  -0.726   3.476  0.00  0.00    +0.050 C 
BRANCH  13  14
ATOM     14  C   LIG    1        4.847  -0.003   2.794  0.00  0.00    -0.010 C 
ATOM     15  C   LIG    1        5.093   1.337   3.491  0.00  0.00    +0.030 C 
ENDBRANCH  13  14
ENDBRANCH   6  13
TORSDOF 5
ENDMDL
MODEL       16
REMARK  Name = ZINC000196750788
REMARK                            x       y       z     vdW  Elec       q    Type
REMARK                         _______ _______ _______ _____ _____    ______ ____
ROOT
ATOM      1  C   LIG    1        1.867  -4.758   3.787  0.00  0.00    +0.250 C 
ENDROOT
BRANCH   1   2
ATOM      2  N   LIG    1        2.221  -6.184   3.806  0.00  0.00    -0.390 N 
ATOM      3  H   LIG    1        1.387  -6.739   3.692  0.00  0.00    +0.420 HD
BRANCH   2   4
ATOM      4  C   LIG    1        3.155  -6.471   2.709  0.00  0.00    +0.240 C 
ATOM      5  C   LIG    1        3.398  -7.979   2.628  0.00  0.00    +0.080 C 
ENDBRANCH   2   4
BRANCH   2   6
ATOM      6  C   LIG    1        2.857  -6.513   5.089  0.00  0.00    +0.240 C 
BRANCH   6   7
ATOM      7  C   LIG    1        1.842  -6.339   6.221  0.00  0.00    +0.020 C 
ATOM      8  C   LIG    1        2.468  -6.791   7.542  0.00  0.00    +0.060 C 
ENDBRANCH   6   7
ENDBRANCH   2   6
ENDBRANCH   1   2
BRANCH   1   9
ATOM      9  C   LIG    1        1.094  -4.442   2.505  0.00  0.00    +0.030 C 
BRANCH   9  10
ATOM     10  C   LIG    1        0.725  -2.957   2.485  0.00  0.00    +0.020 C 
BRANCH  10  11
ATOM     11  C   LIG    1       -0.048  -2.641   1.203  0.00  0.00    +0.020 C 
BRANCH  11  12
ATOM     12  C   LIG    1       -0.417  -1.156   1.183  0.00  0.00    +0.000 C 
BRANCH  12  14
ATOM     13  C   LIG    1       -1.559   0.645  -0.119  0.00  0.00    +0.000 C 
ATOM     14  C   LIG    1       -1.190  -0.840  -0.099  0.00  0.00    -0.010 C 
ENDBRANCH  12  14
ENDBRANCH  11  12
ENDBRANCH  10  11
ENDBRANCH   9  10
ENDBRANCH   1   9
TORSDOF 9
ENDMDL
MODEL       17
REMARK  Name = ZINC000196726072
REMARK                            x       y       z     vdW  Elec       q    Type
REMARK                         _______ _______ _______ _____ _____    ______ ____
ROOT
ATOM      1  C   LIG    1        2.264  -4.584   3.704  0.00  0.00    +0.250 C 
ENDROOT
BRANCH   1   2
ATOM      2  N   LIG    1        2.284  -6.053   3.696  0.00  0.00    -0.390 N 
ATOM      3  C   LIG    1        3.074  -6.526   2.551  0.00  0.00    +0.300 C 
ATOM      4  H   LIG    1        1.340  -6.402   3.620  0.00  0.00    +0.420 HD
BRANCH   2   5
ATOM      5  C   LIG    1        2.887  -6.542   4.943  0.00  0.00    +0.250 C 
BRANCH   5   6
ATOM      6  C   LIG    1        2.795  -8.068   4.990  0.00  0.00    +0.030 C 
BRANCH   6   7
ATOM      7  C   LIG    1        3.424  -8.577   6.289  0.00  0.00    +0.020 C 
ATOM      8  C   LIG    1        3.332 -10.103   6.336  0.00  0.00    +0.030 C 
ENDBRANCH   6   7
ENDBRANCH   5   6
ENDBRANCH   2   5
ENDBRANCH   1   2
BRANCH   1   9
ATOM      9  C   LIG    1        1.524  -4.077   2.464  0.00  0.00    +0.030 C 
BRANCH   9  10
ATOM     10  C   LIG    1        1.503  -2.548   2.473  0.00  0.00    +0.020 C 
BRANCH  10  11
ATOM     11  C   LIG    1        0.763  -2.041   1.233  0.00  0.00    +0.020 C 
BRANCH  11  12
ATOM     12  C   LIG    1        0.742  -0.511   1.242  0.00  0.00    +0.000 C 
BRANCH  12  14
ATOM     13  C   LIG    1       -0.019   1.526   0.010  0.00  0.00    +0.000 C 
ATOM     14  C   LIG    1        0.002  -0.004   0.002  0.00  0.00    -0.010 C 
ENDBRANCH  12  14
ENDBRANCH  11  12
ENDBRANCH  10  11
ENDBRANCH   9  10
ENDBRANCH   1   9
TORSDOF 9
ENDMDL
MODEL       18
REMARK  Name = ZINC000111223737
REMARK                            x       y       z     vdW  Elec       q    Type
REMARK                         _______ _______ _______ _____ _____    ______ ____
ROOT
ATOM      1  C   LIG    1        2.213  -6.074  -3.800  0.00  0.00    +0.340 C 
ENDROOT
BRANCH   1   2
ATOM      2  N   LIG    1        2.898  -6.546  -5.005  0.00  0.00    -0.410 N 
ATOM      3  C   LIG    1        2.309  -6.904  -6.188  0.00  0.00    +0.240 A 
ATOM      4  C   LIG    1        3.300  -7.273  -7.021  0.00  0.00    +0.220 A 
ATOM      5  N   LIG    1        4.463  -7.145  -6.365  0.00  0.00    -0.480 N 
ATOM      6  H   LIG    1        5.339  -7.344  -6.731  0.00  0.00    +0.460 HD
ATOM      7  C   LIG    1        4.231  -6.705  -5.159  0.00  0.00    +0.310 A 
ATOM      8  C   LIG    1        5.275  -6.429  -4.108  0.00  0.00    +0.240 C 
ENDBRANCH   1   2
BRANCH   1   9
ATOM      9  C   LIG    1        2.192  -4.544  -3.791  0.00  0.00    +0.020 C 
BRANCH   9  10
ATOM     10  C   LIG    1        1.476  -4.051  -2.532  0.00  0.00    +0.020 C 
BRANCH  10  11
ATOM     11  C   LIG    1        1.455  -2.521  -2.524  0.00  0.00    +0.000 C 
BRANCH  11  12
ATOM     12  C   LIG    1        0.739  -2.027  -1.265  0.00  0.00    +0.000 C 
BRANCH  12  13
ATOM     13  C   LIG    1        0.718  -0.497  -1.257  0.00  0.00    +0.000 C 
BRANCH  13  15
ATOM     14  C   LIG    1       -0.019   1.526   0.010  0.00  0.00    +0.000 C 
ATOM     15  C   LIG    1        0.002  -0.004   0.002  0.00  0.00    -0.010 C 
ENDBRANCH  13  15
ENDBRANCH  12  13
ENDBRANCH  11  12
ENDBRANCH  10  11
ENDBRANCH   9  10
ENDBRANCH   1   9
TORSDOF 7
ENDMDL
MODEL       19
REMARK  Name = ZINC000682075775
REMARK                            x       y       z     vdW  Elec       q    Type
REMARK                         _______ _______ _______ _____ _____    ______ ____
ROOT
ATOM      1  N   LIG    1        4.313  -4.914   3.307  0.00  0.00    -0.390 N 
ATOM      2  C   LIG    1        4.395  -4.211   4.595  0.00  0.00    +0.310 C 
ATOM      3  H   LIG    1        3.422  -5.381   3.235  0.00  0.00    +0.420 HD
ENDROOT
BRANCH   1   4
ATOM      4  C   LIG    1        5.394  -5.905   3.221  0.00  0.00    +0.170 C 
ATOM      5  C   LIG    1        5.306  -6.860   4.413  0.00  0.00    +0.080 C 
BRANCH   4   6
ATOM      6  C   LIG    1        5.255  -6.699   1.920  0.00  0.00    -0.020 C 
ATOM      7  C   LIG    1        3.917  -7.440   1.915  0.00  0.00    +0.040 C 
ATOM      8  C   LIG    1        6.399  -7.710   1.815  0.00  0.00    +0.070 C 
ENDBRANCH   4   6
ENDBRANCH   1   4
BRANCH   1   9
ATOM      9  C   LIG    1        4.449  -3.945   2.211  0.00  0.00    +0.240 C 
BRANCH   9  10
ATOM     10  C   LIG    1        3.253  -2.990   2.224  0.00  0.00    +0.030 C 
BRANCH  10  11
ATOM     11  C   LIG    1        3.394  -1.982   1.082  0.00  0.00    +0.020 C 
BRANCH  11  12
ATOM     12  C   LIG    1        2.199  -1.027   1.094  0.00  0.00    +0.020 C 
BRANCH  12  13
ATOM     13  C   LIG    1        2.340  -0.018  -0.047  0.00  0.00    +0.050 C 
BRANCH  13  15
ATOM     14  C   LIG    1        1.358   2.216   0.018  0.00  0.00    +0.020 C 
ATOM     15  C   LIG    1        1.162   0.922  -0.035  0.00  0.00    -0.060 C 
ENDBRANCH  13  15
ENDBRANCH  12  13
ENDBRANCH  11  12
ENDBRANCH  10  11
ENDBRANCH   9  10
ENDBRANCH   1   9
TORSDOF 8
ENDMDL
MODEL       20
REMARK  Name = ZINC000682075764
REMARK                            x       y       z     vdW  Elec       q    Type
REMARK                         _______ _______ _______ _____ _____    ______ ____
ROOT
ATOM      1  N   LIG    1        4.143  -5.127   3.433  0.00  0.00    -0.390 N 
ATOM      2  C   LIG    1        4.134  -4.375   4.695  0.00  0.00    +0.320 C 
ATOM      3  H   LIG    1        3.340  -5.737   3.399  0.00  0.00    +0.420 HD
ENDROOT
BRANCH   1   4
ATOM      4  C   LIG    1        5.371  -5.928   3.349  0.00  0.00    +0.170 C 
ATOM      5  C   LIG    1        5.380  -6.711   2.034  0.00  0.00    +0.080 C 
BRANCH   4   6
ATOM      6  C   LIG    1        5.423  -6.906   4.525  0.00  0.00    -0.020 C 
ATOM      7  C   LIG    1        6.759  -7.652   4.508  0.00  0.00    +0.070 C 
ATOM      8  C   LIG    1        4.276  -7.910   4.405  0.00  0.00    +0.040 C 
ENDBRANCH   4   6
ENDBRANCH   1   4
BRANCH   1   9
ATOM      9  C   LIG    1        4.093  -4.188   2.304  0.00  0.00    +0.240 C 
BRANCH   9  10
ATOM     10  C   LIG    1        2.757  -3.441   2.321  0.00  0.00    +0.030 C 
BRANCH  10  11
ATOM     11  C   LIG    1        2.705  -2.464   1.145  0.00  0.00    +0.020 C 
BRANCH  11  12
ATOM     12  C   LIG    1        1.370  -1.717   1.161  0.00  0.00    +0.020 C 
BRANCH  12  13
ATOM     13  C   LIG    1        1.317  -0.740  -0.015  0.00  0.00    +0.050 C 
BRANCH  13  15
ATOM     14  C   LIG    1       -0.016   1.306   0.009  0.00  0.00    +0.020 C 
ATOM     15  C   LIG    1        0.002  -0.004   0.002  0.00  0.00    -0.060 C 
ENDBRANCH  13  15
ENDBRANCH  12  13
ENDBRANCH  11  12
ENDBRANCH  10  11
ENDBRANCH   9  10
ENDBRANCH   1   9
TORSDOF 8
ENDMDL
MODEL       21
REMARK  Name = ZINC000683780697
REMARK                            x       y       z     vdW  Elec       q    Type
REMARK                         _______ _______ _______ _____ _____    ______ ____
ROOT
ATOM      1  N   LIG    1       -4.096  -5.106  -3.571  0.00  0.00    -0.390 N 
ATOM      2  C   LIG    1       -4.360  -4.449  -4.868  0.00  0.00    +0.250 C 
ATOM      3  C   LIG    1       -5.179  -5.485  -5.677  0.00  0.00    +0.080 C 
ATOM      4  C   LIG    1       -6.066  -6.115  -4.572  0.00  0.00    +0.070 C 
ATOM      5  C   LIG    1       -5.135  -6.127  -3.345  0.00  0.00    +0.160 C 
ATOM      6  H   LIG    1       -3.187  -5.545  -3.591  0.00  0.00    +0.430 HD
ENDROOT
BRANCH   5   7
ATOM      7  C   LIG    1       -5.933  -5.793  -2.083  0.00  0.00    +0.040 C 
ATOM      8  C   LIG    1       -6.987  -6.876  -1.844  0.00  0.00    +0.060 C 
ENDBRANCH   5   7
BRANCH   1   9
ATOM      9  C   LIG    1       -4.140  -4.109  -2.493  0.00  0.00    +0.250 C 
BRANCH   9  10
ATOM     10  C   LIG    1       -2.993  -3.111  -2.674  0.00  0.00    +0.030 C 
BRANCH  10  11
ATOM     11  C   LIG    1       -3.039  -2.073  -1.552  0.00  0.00    +0.020 C 
BRANCH  11  12
ATOM     12  C   LIG    1       -1.893  -1.076  -1.732  0.00  0.00    +0.020 C 
BRANCH  12  13
ATOM     13  C   LIG    1       -1.939  -0.037  -0.610  0.00  0.00    +0.050 C 
BRANCH  13  15
ATOM     14  C   LIG    1       -1.062   2.229  -0.852  0.00  0.00    +0.020 C 
ATOM     15  C   LIG    1       -0.810   0.945  -0.788  0.00  0.00    -0.060 C 
ENDBRANCH  13  15
ENDBRANCH  12  13
ENDBRANCH  11  12
ENDBRANCH  10  11
ENDBRANCH   9  10
ENDBRANCH   1   9
TORSDOF 7
ENDMDL
MODEL       22
REMARK  Name = ZINC000683779638
REMARK                            x       y       z     vdW  Elec       q    Type
REMARK                         _______ _______ _______ _____ _____    ______ ____
ROOT
ATOM      1  N   LIG    1        4.175  -5.041   3.499  0.00  0.00    -0.350 N 
ATOM      2  H   LIG    1        3.461  -5.752   3.549  0.00  0.00    +0.420 HD
ENDROOT
BRANCH   1   3
ATOM      3  C   LIG    1        5.495  -5.679   3.412  0.00  0.00    +0.090 C 
ATOM      4  C   LIG    1        5.563  -7.194   3.616  0.00  0.00    +0.100 C 
ATOM      5  C   LIG    1        5.757  -6.601   2.219  0.00  0.00    +0.100 C 
ENDBRANCH   1   3
BRANCH   1   6
ATOM      6  C   LIG    1        4.115  -4.201   4.703  0.00  0.00    +0.160 C 
ATOM      7  C   LIG    1        5.199  -3.124   4.627  0.00  0.00    +0.080 C 
ATOM      8  C   LIG    1        4.345  -5.069   5.942  0.00  0.00    +0.080 C 
ENDBRANCH   1   6
BRANCH   1   9
ATOM      9  C   LIG    1        3.954  -4.209   2.309  0.00  0.00    +0.250 C 
BRANCH   9  10
ATOM     10  C   LIG    1        2.531  -3.647   2.337  0.00  0.00    +0.030 C 
BRANCH  10  11
ATOM     11  C   LIG    1        2.331  -2.706   1.147  0.00  0.00    +0.020 C 
BRANCH  11  12
ATOM     12  C   LIG    1        0.908  -2.144   1.175  0.00  0.00    +0.020 C 
BRANCH  12  13
ATOM     13  C   LIG    1        0.708  -1.202  -0.015  0.00  0.00    +0.050 C 
BRANCH  13  15
ATOM     14  C   LIG    1       -0.886   0.646   0.001  0.00  0.00    +0.020 C 
ATOM     15  C   LIG    1       -0.693  -0.649   0.013  0.00  0.00    -0.060 C 
ENDBRANCH  13  15
ENDBRANCH  12  13
ENDBRANCH  11  12
ENDBRANCH  10  11
ENDBRANCH   9  10
ENDBRANCH   1   9
TORSDOF 8
ENDMDL
MODEL       23
REMARK  Name = ZINC000683779284
REMARK                            x       y       z     vdW  Elec       q    Type
REMARK                         _______ _______ _______ _____ _____    ______ ____
ROOT
ATOM      1  N   LIG    1       -4.029  -5.226  -3.500  0.00  0.00    -0.380 N 
ATOM      2  H   LIG    1       -3.330  -5.952  -3.555  0.00  0.00    +0.420 HD
ENDROOT
BRANCH   1   3
ATOM      3  C   LIG    1       -3.849  -4.288  -4.616  0.00  0.00    +0.240 C 
ATOM      4  C   LIG    1       -4.845  -3.135  -4.478  0.00  0.00    +0.080 C 
ENDBRANCH   1   3
BRANCH   1   5
ATOM      5  C   LIG    1       -3.887  -4.506  -2.227  0.00  0.00    +0.240 C 
BRANCH   5   6
ATOM      6  C   LIG    1       -2.456  -3.981  -2.095  0.00  0.00    +0.030 C 
BRANCH   6   7
ATOM      7  C   LIG    1       -2.337  -3.138  -0.823  0.00  0.00    +0.020 C 
BRANCH   7   8
ATOM      8  C   LIG    1       -0.907  -2.613  -0.692  0.00  0.00    +0.020 C 
BRANCH   8   9
ATOM      9  C   LIG    1       -0.788  -1.770   0.580  0.00  0.00    +0.050 C 
BRANCH   9  11
ATOM     10  C   LIG    1        0.838   0.033   0.839  0.00  0.00    +0.020 C 
ATOM     11  C   LIG    1        0.621  -1.252   0.710  0.00  0.00    -0.060 C 
ENDBRANCH   9  11
ENDBRANCH   8   9
ENDBRANCH   7   8
ENDBRANCH   6   7
ENDBRANCH   5   6
ENDBRANCH   1   5
BRANCH   1  12
ATOM     12  C   LIG    1       -5.367  -5.828  -3.576  0.00  0.00    +0.300 C 
BRANCH  12  13
ATOM     13  C   LIG    1       -5.458  -6.697  -4.803  0.00  0.00    -0.200 C 
ATOM     14  C   LIG    1       -5.828  -6.090  -6.131  0.00  0.00    +0.090 C 
ATOM     15  C   LIG    1       -5.214  -7.982  -4.715  0.00  0.00    +0.120 C 
ENDBRANCH  12  13
ENDBRANCH   1  12
TORSDOF 9
ENDMDL
MODEL       24
REMARK  Name = ZINC000683779215
REMARK                            x       y       z     vdW  Elec       q    Type
REMARK                         _______ _______ _______ _____ _____    ______ ____
ROOT
ATOM      1  N   LIG    1       -3.999  -5.199  -3.486  0.00  0.00    -0.380 N 
ATOM      2  C   LIG    1       -4.007  -4.433  -4.738  0.00  0.00    +0.250 C 
ATOM      3  C   LIG    1       -3.951  -5.393  -5.928  0.00  0.00    +0.050 C 
ATOM      4  C   LIG    1       -5.170  -6.320  -5.887  0.00  0.00    +0.030 C 
ATOM      5  C   LIG    1       -5.192  -7.059  -4.546  0.00  0.00    +0.060 C 
ATOM      6  C   LIG    1       -5.202  -6.035  -3.408  0.00  0.00    +0.160 C 
ATOM      7  C   LIG    1       -5.224  -6.768  -2.064  0.00  0.00    +0.080 C 
ATOM      8  H   LIG    1       -3.179  -5.787  -3.458  0.00  0.00    +0.420 HD
ENDROOT
BRANCH   1   9
ATOM      9  C   LIG    1       -3.974  -4.272  -2.346  0.00  0.00    +0.240 C 
BRANCH   9  10
ATOM     10  C   LIG    1       -2.659  -3.489  -2.355  0.00  0.00    +0.030 C 
BRANCH  10  11
ATOM     11  C   LIG    1       -2.633  -2.524  -1.168  0.00  0.00    +0.020 C 
BRANCH  11  12
ATOM     12  C   LIG    1       -1.319  -1.741  -1.176  0.00  0.00    +0.020 C 
BRANCH  12  13
ATOM     13  C   LIG    1       -1.293  -0.775   0.010  0.00  0.00    +0.050 C 
BRANCH  13  15
ATOM     14  C   LIG    1       -0.016   1.306   0.009  0.00  0.00    +0.020 C 
ATOM     15  C   LIG    1        0.002  -0.004   0.002  0.00  0.00    -0.060 C 
ENDBRANCH  13  15
ENDBRANCH  12  13
ENDBRANCH  11  12
ENDBRANCH  10  11
ENDBRANCH   9  10
ENDBRANCH   1   9
TORSDOF 6
ENDMDL
MODEL       25
REMARK  Name = ZINC000683780628
REMARK                            x       y       z     vdW  Elec       q    Type
REMARK                         _______ _______ _______ _____ _____    ______ ____
ROOT
ATOM      1  N   LIG    1        4.228  -5.187   3.373  0.00  0.00    -0.360 N 
ATOM      2  H   LIG    1        3.929  -4.654   4.175  0.00  0.00    +0.420 HD
ENDROOT
BRANCH   1   3
ATOM      3  C   LIG    1        3.285  -6.288   3.137  0.00  0.00    +0.090 C 
ATOM      4  C   LIG    1        2.291  -6.618   4.252  0.00  0.00    +0.100 C 
ATOM      5  C   LIG    1        1.806  -5.929   2.975  0.00  0.00    +0.090 C 
ENDBRANCH   1   3
BRANCH   1   6
ATOM      6  C   LIG    1        4.268  -4.314   2.191  0.00  0.00    +0.250 C 
BRANCH   6   7
ATOM      7  C   LIG    1        5.142  -3.094   2.488  0.00  0.00    +0.020 C 
BRANCH   7   8
ATOM      8  C   LIG    1        5.077  -2.122   1.308  0.00  0.00    +0.020 C 
BRANCH   8   9
ATOM      9  C   LIG    1        5.952  -0.902   1.605  0.00  0.00    +0.020 C 
BRANCH   9  10
ATOM     10  C   LIG    1        5.887   0.071   0.425  0.00  0.00    +0.050 C 
BRANCH  10  12
ATOM     11  C   LIG    1        7.689   1.624  -0.124  0.00  0.00    +0.020 C 
ATOM     12  C   LIG    1        6.748   1.272   0.717  0.00  0.00    -0.060 C 
ENDBRANCH  10  12
ENDBRANCH   9  10
ENDBRANCH   8   9
ENDBRANCH   7   8
ENDBRANCH   6   7
ENDBRANCH   1   6
BRANCH   1  13
ATOM     13  C   LIG    1        5.568  -5.735   3.621  0.00  0.00    +0.250 C 
BRANCH  13  14
ATOM     14  C   LIG    1        5.556  -6.543   4.921  0.00  0.00    +0.020 C 
ATOM     15  C   LIG    1        6.951  -7.114   5.180  0.00  0.00    +0.060 C 
ENDBRANCH  13  14
ENDBRANCH   1  13
TORSDOF 9
ENDMDL
MODEL       26
REMARK  Name = ZINC000683779216
REMARK                            x       y       z     vdW  Elec       q    Type
REMARK                         _______ _______ _______ _____ _____    ______ ____
ROOT
ATOM      1  N   LIG    1       -3.999  -5.199  -3.486  0.00  0.00    -0.380 N 
ATOM      2  C   LIG    1       -4.007  -4.433  -4.738  0.00  0.00    +0.240 C 
ATOM      3  C   LIG    1       -3.951  -5.393  -5.928  0.00  0.00    +0.060 C 
ATOM      4  C   LIG    1       -5.170  -6.320  -5.887  0.00  0.00    +0.030 C 
ATOM      5  C   LIG    1       -5.192  -7.059  -4.546  0.00  0.00    +0.060 C 
ATOM      6  C   LIG    1       -5.202  -6.035  -3.408  0.00  0.00    +0.170 C 
ATOM      7  C   LIG    1       -6.447  -5.153  -3.528  0.00  0.00    +0.070 C 
ATOM      8  H   LIG    1       -3.179  -5.787  -3.458  0.00  0.00    +0.420 HD
ENDROOT
BRANCH   1   9
ATOM      9  C   LIG    1       -3.974  -4.272  -2.346  0.00  0.00    +0.250 C 
BRANCH   9  10
ATOM     10  C   LIG    1       -2.659  -3.489  -2.355  0.00  0.00    +0.030 C 
BRANCH  10  11
ATOM     11  C   LIG    1       -2.633  -2.524  -1.168  0.00  0.00    +0.020 C 
BRANCH  11  12
ATOM     12  C   LIG    1       -1.319  -1.741  -1.176  0.00  0.00    +0.020 C 
BRANCH  12  13
ATOM     13  C   LIG    1       -1.293  -0.775   0.010  0.00  0.00    +0.050 C 
BRANCH  13  15
ATOM     14  C   LIG    1       -0.016   1.306   0.009  0.00  0.00    +0.020 C 
ATOM     15  C   LIG    1        0.002  -0.004   0.002  0.00  0.00    -0.060 C 
ENDBRANCH  13  15
ENDBRANCH  12  13
ENDBRANCH  11  12
ENDBRANCH  10  11
ENDBRANCH   9  10
ENDBRANCH   1   9
TORSDOF 6
ENDMDL
MODEL       27
REMARK  Name = ZINC000683780752
REMARK                            x       y       z     vdW  Elec       q    Type
REMARK                         _______ _______ _______ _____ _____    ______ ____
ROOT
ATOM      1  N   LIG    1        4.143  -5.127   3.433  0.00  0.00    -0.390 N 
ATOM      2  C   LIG    1        4.166  -4.374   4.705  0.00  0.00    +0.250 C 
ATOM      3  C   LIG    1        5.091  -5.197   5.636  0.00  0.00    +0.080 C 
ATOM      4  C   LIG    1        6.173  -5.694   4.641  0.00  0.00    +0.080 C 
ATOM      5  C   LIG    1        5.371  -5.939   3.349  0.00  0.00    +0.050 C 
ATOM      6  C   LIG    1        6.197  -5.510   2.135  0.00  0.00    +0.090 C 
ATOM      7  C   LIG    1        5.004  -7.420   3.236  0.00  0.00    +0.100 C 
ATOM      8  H   LIG    1        3.335  -5.730   3.410  0.00  0.00    +0.420 HD
ENDROOT
BRANCH   1   9
ATOM      9  C   LIG    1        4.093  -4.188   2.304  0.00  0.00    +0.250 C 
BRANCH   9  10
ATOM     10  C   LIG    1        2.757  -3.441   2.321  0.00  0.00    +0.020 C 
BRANCH  10  11
ATOM     11  C   LIG    1        2.705  -2.464   1.145  0.00  0.00    +0.020 C 
BRANCH  11  12
ATOM     12  C   LIG    1        1.370  -1.717   1.161  0.00  0.00    +0.020 C 
BRANCH  12  13
ATOM     13  C   LIG    1        1.317  -0.740  -0.015  0.00  0.00    +0.050 C 
BRANCH  13  15
ATOM     14  C   LIG    1       -0.016   1.306   0.009  0.00  0.00    +0.020 C 
ATOM     15  C   LIG    1        0.002  -0.004   0.002  0.00  0.00    -0.060 C 
ENDBRANCH  13  15
ENDBRANCH  12  13
ENDBRANCH  11  12
ENDBRANCH  10  11
ENDBRANCH   9  10
ENDBRANCH   1   9
TORSDOF 6
ENDMDL
MODEL       28
REMARK  Name = ZINC000683780696
REMARK                            x       y       z     vdW  Elec       q    Type
REMARK                         _______ _______ _______ _____ _____    ______ ____
ROOT
ATOM      1  N   LIG    1       -3.999  -5.199  -3.486  0.00  0.00    -0.390 N 
ATOM      2  C   LIG    1       -4.042  -4.433  -4.749  0.00  0.00    +0.250 C 
ATOM      3  C   LIG    1       -4.945  -5.271  -5.689  0.00  0.00    +0.080 C 
ATOM      4  C   LIG    1       -6.013  -5.808  -4.700  0.00  0.00    +0.070 C 
ATOM      5  C   LIG    1       -5.204  -6.045  -3.411  0.00  0.00    +0.160 C 
ATOM      6  H   LIG    1       -3.174  -5.781  -3.469  0.00  0.00    +0.420 HD
ENDROOT
BRANCH   5   7
ATOM      7  C   LIG    1       -4.801  -7.517  -3.312  0.00  0.00    +0.060 C 
ATOM      8  C   LIG    1       -4.075  -7.760  -1.988  0.00  0.00    +0.030 C 
ENDBRANCH   5   7
BRANCH   1   9
ATOM      9  C   LIG    1       -3.974  -4.272  -2.346  0.00  0.00    +0.250 C 
BRANCH   9  10
ATOM     10  C   LIG    1       -2.659  -3.489  -2.355  0.00  0.00    +0.030 C 
BRANCH  10  11
ATOM     11  C   LIG    1       -2.633  -2.524  -1.168  0.00  0.00    +0.020 C 
BRANCH  11  12
ATOM     12  C   LIG    1       -1.319  -1.741  -1.176  0.00  0.00    +0.020 C 
BRANCH  12  13
ATOM     13  C   LIG    1       -1.293  -0.775   0.010  0.00  0.00    +0.050 C 
BRANCH  13  15
ATOM     14  C   LIG    1       -0.016   1.306   0.009  0.00  0.00    +0.020 C 
ATOM     15  C   LIG    1        0.002  -0.004   0.002  0.00  0.00    -0.060 C 
ENDBRANCH  13  15
ENDBRANCH  12  13
ENDBRANCH  11  12
ENDBRANCH  10  11
ENDBRANCH   9  10
ENDBRANCH   1   9
TORSDOF 7
ENDMDL
MODEL       29
REMARK  Name = ZINC000683783732
REMARK                            x       y       z     vdW  Elec       q    Type
REMARK                         _______ _______ _______ _____ _____    ______ ____
ROOT
ATOM      1  N   LIG    1       -3.999  -5.199  -3.486  0.00  0.00    -0.380 N 
ATOM      2  C   LIG    1       -4.010  -4.434  -4.739  0.00  0.00    +0.320 C 
ATOM      3  H   LIG    1       -3.180  -5.788  -3.458  0.00  0.00    +0.420 HD
ENDROOT
BRANCH   1   4
ATOM      4  C   LIG    1       -5.205  -6.034  -3.411  0.00  0.00    +0.050 C 
ATOM      5  C   LIG    1       -6.447  -5.142  -3.452  0.00  0.00    +0.090 C 
ATOM      6  C   LIG    1       -5.193  -6.832  -2.105  0.00  0.00    +0.090 C 
BRANCH   4   7
ATOM      7  C   LIG    1       -5.231  -7.000  -4.598  0.00  0.00    +0.040 C 
ATOM      8  C   LIG    1       -6.487  -7.870  -4.519  0.00  0.00    +0.060 C 
ENDBRANCH   4   7
ENDBRANCH   1   4
BRANCH   1   9
ATOM      9  C   LIG    1       -3.974  -4.272  -2.346  0.00  0.00    +0.240 C 
BRANCH   9  10
ATOM     10  C   LIG    1       -2.659  -3.489  -2.355  0.00  0.00    +0.030 C 
BRANCH  10  11
ATOM     11  C   LIG    1       -2.633  -2.524  -1.168  0.00  0.00    +0.020 C 
BRANCH  11  12
ATOM     12  C   LIG    1       -1.319  -1.741  -1.176  0.00  0.00    +0.020 C 
BRANCH  12  13
ATOM     13  C   LIG    1       -1.293  -0.775   0.010  0.00  0.00    +0.050 C 
BRANCH  13  15
ATOM     14  C   LIG    1       -0.016   1.306   0.009  0.00  0.00    +0.020 C 
ATOM     15  C   LIG    1        0.002  -0.004   0.002  0.00  0.00    -0.060 C 
ENDBRANCH  13  15
ENDBRANCH  12  13
ENDBRANCH  11  12
ENDBRANCH  10  11
ENDBRANCH   9  10
ENDBRANCH   1   9
TORSDOF 8
ENDMDL
MODEL       30
REMARK  Name = ZINC000683782204
REMARK                            x       y       z     vdW  Elec       q    Type
REMARK                         _______ _______ _______ _____ _____    ______ ____
ROOT
ATOM      1  N   LIG    1        3.872  -5.042   3.522  0.00  0.00    -0.380 N 
ATOM      2  H   LIG    1        3.058  -5.617   3.681  0.00  0.00    +0.420 HD
ENDROOT
BRANCH   1   3
ATOM      3  C   LIG    1        5.040  -5.900   3.284  0.00  0.00    +0.150 C 
ATOM      4  C   LIG    1        5.055  -7.173   4.147  0.00  0.00    +0.050 C 
ATOM      5  C   LIG    1        5.571  -7.916   2.903  0.00  0.00    +0.060 C 
ATOM      6  C   LIG    1        4.886  -6.824   2.064  0.00  0.00    +0.050 C 
ENDBRANCH   1   3
BRANCH   1   7
ATOM      7  C   LIG    1        4.115  -4.201   4.703  0.00  0.00    +0.250 C 
ATOM      8  C   LIG    1        4.220  -5.086   5.946  0.00  0.00    +0.070 C 
ENDBRANCH   1   7
BRANCH   1   9
ATOM      9  C   LIG    1        3.646  -4.186   2.350  0.00  0.00    +0.250 C 
BRANCH   9  10
ATOM     10  C   LIG    1        2.349  -3.396   2.538  0.00  0.00    +0.030 C 
BRANCH  10  11
ATOM     11  C   LIG    1        2.126  -2.487   1.328  0.00  0.00    +0.020 C 
BRANCH  11  12
ATOM     12  C   LIG    1        0.829  -1.697   1.515  0.00  0.00    +0.020 C 
BRANCH  12  13
ATOM     13  C   LIG    1        0.606  -0.788   0.305  0.00  0.00    +0.050 C 
BRANCH  13  15
ATOM     14  C   LIG    1       -0.658   1.298   0.418  0.00  0.00    +0.020 C 
ATOM     15  C   LIG    1       -0.671  -0.010   0.490  0.00  0.00    -0.060 C 
ENDBRANCH  13  15
ENDBRANCH  12  13
ENDBRANCH  11  12
ENDBRANCH  10  11
ENDBRANCH   9  10
ENDBRANCH   1   9
TORSDOF 8
ENDMDL
MODEL       31
REMARK  Name = ZINC000683781667
REMARK                            x       y       z     vdW  Elec       q    Type
REMARK                         _______ _______ _______ _____ _____    ______ ____
ROOT
ATOM      1  N   LIG    1        4.198  -5.039   3.499  0.00  0.00    -0.390 N 
ATOM      2  C   LIG    1        4.148  -4.197   4.713  0.00  0.00    +0.160 C 
ATOM      3  C   LIG    1        5.114  -4.883   5.710  0.00  0.00    +0.080 C 
ATOM      4  C   LIG    1        6.244  -5.373   4.766  0.00  0.00    +0.070 C 
ATOM      5  C   LIG    1        4.624  -2.778   4.396  0.00  0.00    +0.080 C 
ATOM      6  C   LIG    1        5.481  -5.766   3.487  0.00  0.00    +0.160 C 
ATOM      7  C   LIG    1        6.295  -5.371   2.253  0.00  0.00    +0.080 C 
ATOM      8  H   LIG    1        3.434  -5.699   3.511  0.00  0.00    +0.420 HD
ENDROOT
BRANCH   1   9
ATOM      9  C   LIG    1        4.099  -4.191   2.304  0.00  0.00    +0.250 C 
BRANCH   9  10
ATOM     10  C   LIG    1        2.703  -3.569   2.234  0.00  0.00    +0.030 C 
BRANCH  10  11
ATOM     11  C   LIG    1        2.643  -2.580   1.067  0.00  0.00    +0.020 C 
BRANCH  11  12
ATOM     12  C   LIG    1        1.247  -1.958   0.997  0.00  0.00    +0.020 C 
BRANCH  12  13
ATOM     13  C   LIG    1        1.187  -0.969  -0.169  0.00  0.00    +0.050 C 
BRANCH  13  15
ATOM     14  C   LIG    1       -0.327   0.946  -0.218  0.00  0.00    +0.020 C 
ATOM     15  C   LIG    1       -0.188  -0.357  -0.238  0.00  0.00    -0.060 C 
ENDBRANCH  13  15
ENDBRANCH  12  13
ENDBRANCH  11  12
ENDBRANCH  10  11
ENDBRANCH   9  10
ENDBRANCH   1   9
TORSDOF 6
ENDMDL
MODEL       32
REMARK  Name = ZINC001172403617
REMARK                            x       y       z     vdW  Elec       q    Type
REMARK                         _______ _______ _______ _____ _____    ______ ____
ROOT
ATOM      1  N   LIG    1       -2.102  -0.886  -1.018  0.00  0.00    -0.380 N 
ATOM      2  H   LIG    1       -1.843  -0.667  -0.068  0.00  0.00    +0.420 HD
ENDROOT
BRANCH   1   3
ATOM      3  C   LIG    1       -0.896  -1.206  -1.793  0.00  0.00    +0.240 C 
ATOM      4  C   LIG    1        0.264  -0.330  -1.317  0.00  0.00    +0.070 C 
ENDBRANCH   1   3
BRANCH   1   5
ATOM      5  C   LIG    1       -2.779   0.270  -1.621  0.00  0.00    +0.290 C 
BRANCH   5   7
ATOM      6  C   LIG    1       -1.433   2.117  -2.480  0.00  0.00    +0.110 C 
ATOM      7  C   LIG    1       -1.930   1.501  -1.436  0.00  0.00    -0.190 C 
ATOM      8  C   LIG    1       -1.654   2.024  -0.050  0.00  0.00    +0.100 C 
ENDBRANCH   5   7
ENDBRANCH   1   5
BRANCH   1   9
ATOM      9  C   LIG    1       -3.009  -2.042  -1.024  0.00  0.00    +0.160 C 
BRANCH   9  10
ATOM     10  C   LIG    1       -2.714  -2.927   0.189  0.00  0.00    +0.050 C 
ATOM     11  C   LIG    1       -3.023  -2.153   1.472  0.00  0.00    +0.040 C 
ENDBRANCH   9  10
BRANCH   9  12
ATOM     12  C   LIG    1       -2.799  -2.849  -2.307  0.00  0.00    +0.060 C 
BRANCH  12  13
ATOM     13  C   LIG    1       -3.249  -2.019  -3.511  0.00  0.00    -0.040 C 
ATOM     14  C   LIG    1       -4.691  -1.554  -3.299  0.00  0.00    +0.020 C 
ATOM     15  C   LIG    1       -3.170  -2.873  -4.778  0.00  0.00    +0.050 C 
ENDBRANCH  12  13
ENDBRANCH   9  12
ENDBRANCH   1   9
TORSDOF 7
ENDMDL
MODEL       33
REMARK  Name = ZINC001172403618
REMARK                            x       y       z     vdW  Elec       q    Type
REMARK                         _______ _______ _______ _____ _____    ______ ____
ROOT
ATOM      1  N   LIG    1       -1.647  -1.356  -1.487  0.00  0.00    -0.380 N 
ATOM      2  H   LIG    1       -1.342  -0.763  -2.245  0.00  0.00    +0.420 HD
ENDROOT
BRANCH   1   3
ATOM      3  C   LIG    1       -1.567  -0.614  -0.222  0.00  0.00    +0.250 C 
ATOM      4  C   LIG    1       -0.331   0.288  -0.236  0.00  0.00    +0.070 C 
ENDBRANCH   1   3
BRANCH   1   5
ATOM      5  C   LIG    1       -0.781  -2.541  -1.415  0.00  0.00    +0.300 C 
BRANCH   5   7
ATOM      6  C   LIG    1        1.363  -2.373  -0.259  0.00  0.00    +0.110 C 
ATOM      7  C   LIG    1        0.659  -2.106  -1.331  0.00  0.00    -0.190 C 
ATOM      8  C   LIG    1        1.291  -1.365  -2.482  0.00  0.00    +0.090 C 
ENDBRANCH   5   7
ENDBRANCH   1   5
BRANCH   1   9
ATOM      9  C   LIG    1       -3.034  -1.776  -1.722  0.00  0.00    +0.160 C 
BRANCH   9  10
ATOM     10  C   LIG    1       -3.145  -2.420  -3.106  0.00  0.00    +0.050 C 
ATOM     11  C   LIG    1       -2.798  -1.386  -4.179  0.00  0.00    +0.030 C 
ENDBRANCH   9  10
BRANCH   9  12
ATOM     12  C   LIG    1       -3.448  -2.790  -0.654  0.00  0.00    +0.040 C 
BRANCH  12  13
ATOM     13  C   LIG    1       -4.939  -3.103  -0.796  0.00  0.00    -0.010 C 
ATOM     14  C   LIG    1       -5.755  -1.847  -0.483  0.00  0.00    +0.020 C 
ATOM     15  C   LIG    1       -5.322  -4.217   0.179  0.00  0.00    +0.040 C 
ENDBRANCH  12  13
ENDBRANCH   9  12
ENDBRANCH   1   9
TORSDOF 7
ENDMDL
MODEL       34
REMARK  Name = ZINC000649383395
REMARK                            x       y       z     vdW  Elec       q    Type
REMARK                         _______ _______ _______ _____ _____    ______ ____
ROOT
ATOM      1  N   LIG    1       -4.027  -4.121  -2.117  0.00  0.00    -0.380 N 
ATOM      2  H   LIG    1       -4.915  -3.654  -2.014  0.00  0.00    +0.420 HD
ENDROOT
BRANCH   1   3
ATOM      3  C   LIG    1       -3.989  -4.824  -3.406  0.00  0.00    +0.140 C 
ATOM      4  C   LIG    1       -5.333  -5.459  -3.801  0.00  0.00    +0.050 C 
ATOM      5  C   LIG    1       -5.041  -4.995  -5.237  0.00  0.00    +0.060 C 
ATOM      6  C   LIG    1       -4.162  -3.894  -4.619  0.00  0.00    +0.050 C 
ENDBRANCH   1   3
BRANCH   1   7
ATOM      7  C   LIG    1       -3.854  -5.090  -1.026  0.00  0.00    +0.160 C 
ATOM      8  C   LIG    1       -2.563  -5.881  -1.246  0.00  0.00    +0.080 C 
ATOM      9  C   LIG    1       -5.044  -6.051  -1.004  0.00  0.00    +0.080 C 
ENDBRANCH   1   7
BRANCH   1  10
ATOM     10  C   LIG    1       -2.944  -3.130  -2.067  0.00  0.00    +0.250 C 
BRANCH  10  11
ATOM     11  C   LIG    1       -3.047  -2.325  -0.770  0.00  0.00    +0.030 C 
BRANCH  11  12
ATOM     12  C   LIG    1       -1.886  -1.332  -0.692  0.00  0.00    +0.040 C 
BRANCH  12  13
ATOM     13  C   LIG    1       -1.990  -0.528   0.606  0.00  0.00    +0.050 C 
BRANCH  13  15
ATOM     14  C   LIG    1       -1.086   1.727   0.853  0.00  0.00    +0.020 C 
ATOM     15  C   LIG    1       -0.846   0.450   0.683  0.00  0.00    -0.060 C 
ENDBRANCH  13  15
ENDBRANCH  12  13
ENDBRANCH  11  12
ENDBRANCH  10  11
ENDBRANCH   1  10
TORSDOF 7
ENDMDL
MODEL       35
REMARK  Name = ZINC001173256771
REMARK                            x       y       z     vdW  Elec       q    Type
REMARK                         _______ _______ _______ _____ _____    ______ ____
ROOT
ATOM      1  C   LIG    1        2.586  -2.321   0.821  0.00  0.00    +0.160 C 
ENDROOT
BRANCH   1   2
ATOM      2  N   LIG    1        1.615  -1.259   1.118  0.00  0.00    -0.380 N 
ATOM      3  C   LIG    1        0.253  -1.800   1.024  0.00  0.00    +0.310 C 
ATOM      4  H   LIG    1        1.725  -0.507   0.453  0.00  0.00    +0.420 HD
BRANCH   2   5
ATOM      5  C   LIG    1        1.847  -0.749   2.476  0.00  0.00    +0.290 C 
BRANCH   5   7
ATOM      6  C   LIG    1        0.297   0.749   3.622  0.00  0.00    +0.120 C 
ATOM      7  C   LIG    1        1.149   0.576   2.641  0.00  0.00    -0.110 C 
ENDBRANCH   5   7
ENDBRANCH   2   5
ENDBRANCH   1   2
BRANCH   1   8
ATOM      8  C   LIG    1        2.466  -2.725  -0.650  0.00  0.00    +0.060 C 
BRANCH   8   9
ATOM      9  C   LIG    1        2.747  -1.511  -1.538  0.00  0.00    -0.050 C 
ATOM     10  C   LIG    1        2.595  -1.907  -3.007  0.00  0.00    +0.050 C 
ATOM     11  C   LIG    1        4.173  -1.016  -1.288  0.00  0.00    +0.030 C 
ENDBRANCH   8   9
ENDBRANCH   1   8
BRANCH   1  12
ATOM     12  C   LIG    1        2.302  -3.534   1.708  0.00  0.00    +0.050 C 
BRANCH  12  13
ATOM     13  C   LIG    1        2.953  -3.328   3.077  0.00  0.00    +0.010 C 
BRANCH  13  14
ATOM     14  C   LIG    1        2.817  -4.608   3.904  0.00  0.00    +0.010 C 
ATOM     15  C   LIG    1        3.468  -4.403   5.273  0.00  0.00    +0.010 C 
ENDBRANCH  13  14
ENDBRANCH  12  13
ENDBRANCH   1  12
TORSDOF 8
ENDMDL
MODEL       36
REMARK  Name = ZINC001208136066
REMARK                            x       y       z     vdW  Elec       q    Type
REMARK                         _______ _______ _______ _____ _____    ______ ____
ROOT
ATOM      1  N   LIG    1       -1.563  -1.285  -0.795  0.00  0.00    -0.380 N 
ATOM      2  H   LIG    1       -0.831  -1.780  -1.282  0.00  0.00    +0.420 HD
ENDROOT
BRANCH   1   3
ATOM      3  C   LIG    1       -2.248  -0.382  -1.730  0.00  0.00    +0.240 C 
ATOM      4  C   LIG    1       -1.220   0.525  -2.408  0.00  0.00    +0.080 C 
ENDBRANCH   1   3
BRANCH   1   5
ATOM      5  C   LIG    1       -0.979  -0.503   0.303  0.00  0.00    +0.300 C 
BRANCH   5   7
ATOM      6  C   LIG    1        1.143  -1.516   0.957  0.00  0.00    +0.110 C 
ATOM      7  C   LIG    1       -0.144  -1.405   1.174  0.00  0.00    -0.200 C 
ATOM      8  C   LIG    1       -0.789  -2.180   2.294  0.00  0.00    +0.090 C 
ENDBRANCH   5   7
ENDBRANCH   1   5
BRANCH   1   9
ATOM      9  C   LIG    1       -2.528  -2.249  -0.250  0.00  0.00    +0.250 C 
BRANCH   9  10
ATOM     10  C   LIG    1       -3.067  -3.126  -1.382  0.00  0.00    +0.040 C 
BRANCH  10  11
ATOM     11  C   LIG    1       -4.072  -4.130  -0.815  0.00  0.00    +0.080 C 
BRANCH  11  12
ATOM     12  C   LIG    1       -4.604  -4.994  -1.930  0.00  0.00    -0.070 C 
ATOM     13  C   LIG    1       -4.558  -6.299  -1.827  0.00  0.00    -0.010 C 
BRANCH  13  14
ATOM     14  C   LIG    1       -4.138  -6.938  -0.528  0.00  0.00    +0.030 C 
ATOM     15  C   LIG    1       -5.195  -7.954  -0.094  0.00  0.00    +0.030 C 
ENDBRANCH  13  14
ENDBRANCH  11  12
ENDBRANCH  10  11
ENDBRANCH   9  10
ENDBRANCH   1   9
TORSDOF 8
ENDMDL
MODEL       37
REMARK  Name = ZINC001173256769
REMARK                            x       y       z     vdW  Elec       q    Type
REMARK                         _______ _______ _______ _____ _____    ______ ____
ROOT
ATOM      1  C   LIG    1        2.707  -2.284   1.048  0.00  0.00    +0.160 C 
ENDROOT
BRANCH   1   2
ATOM      2  N   LIG    1        1.415  -1.655   1.353  0.00  0.00    -0.380 N 
ATOM      3  C   LIG    1        0.350  -2.665   1.287  0.00  0.00    +0.300 C 
ATOM      4  H   LIG    1        1.228  -0.926   0.681  0.00  0.00    +0.420 HD
BRANCH   2   5
ATOM      5  C   LIG    1        1.459  -1.077   2.703  0.00  0.00    +0.290 C 
BRANCH   5   7
ATOM      6  C   LIG    1       -0.544  -0.598   4.015  0.00  0.00    +0.120 C 
ATOM      7  C   LIG    1        0.186  -0.314   2.965  0.00  0.00    -0.100 C 
ENDBRANCH   5   7
ENDBRANCH   2   5
ENDBRANCH   1   2
BRANCH   1   8
ATOM      8  C   LIG    1        2.922  -3.483   1.974  0.00  0.00    +0.040 C 
BRANCH   8   9
ATOM      9  C   LIG    1        4.324  -4.053   1.752  0.00  0.00    -0.010 C 
ATOM     10  C   LIG    1        4.493  -5.329   2.581  0.00  0.00    +0.040 C 
ATOM     11  C   LIG    1        5.368  -3.022   2.185  0.00  0.00    +0.020 C 
ENDBRANCH   8   9
ENDBRANCH   1   8
BRANCH   1  12
ATOM     12  C   LIG    1        2.712  -2.756  -0.408  0.00  0.00    +0.050 C 
BRANCH  12  13
ATOM     13  C   LIG    1        2.584  -1.548  -1.337  0.00  0.00    +0.000 C 
BRANCH  13  14
ATOM     14  C   LIG    1        2.483  -2.027  -2.786  0.00  0.00    +0.020 C 
ATOM     15  C   LIG    1        2.355  -0.818  -3.715  0.00  0.00    +0.010 C 
ENDBRANCH  13  14
ENDBRANCH  12  13
ENDBRANCH   1  12
TORSDOF 8
ENDMDL
MODEL       38
REMARK  Name = ZINC000621301544
REMARK                            x       y       z     vdW  Elec       q    Type
REMARK                         _______ _______ _______ _____ _____    ______ ____
ROOT
ATOM      1  N   LIG    1        1.418  -1.590   1.179  0.00  0.00    -0.380 N 
ATOM      2  H   LIG    1        1.159  -1.003   1.958  0.00  0.00    +0.420 HD
ENDROOT
BRANCH   1   3
ATOM      3  C   LIG    1        0.468  -2.705   1.068  0.00  0.00    +0.160 C 
ATOM      4  C   LIG    1        0.940  -3.670  -0.021  0.00  0.00    +0.040 C 
ATOM      5  C   LIG    1       -0.050  -4.831  -0.137  0.00  0.00    +0.030 C 
ATOM      6  C   LIG    1       -0.127  -5.570   1.200  0.00  0.00    +0.020 C 
ATOM      7  C   LIG    1       -0.599  -4.605   2.290  0.00  0.00    +0.030 C 
ATOM      8  C   LIG    1        0.391  -3.444   2.406  0.00  0.00    +0.040 C 
ENDBRANCH   1   3
BRANCH   1   9
ATOM      9  C   LIG    1        1.392  -0.799  -0.058  0.00  0.00    +0.280 C 
BRANCH   9  11
ATOM     10  C   LIG    1       -0.057   1.143  -0.359  0.00  0.00    +0.130 C 
ATOM     11  C   LIG    1        0.038  -0.156  -0.215  0.00  0.00    -0.110 C 
ENDBRANCH   9  11
ENDBRANCH   1   9
BRANCH   1  12
ATOM     12  C   LIG    1        2.771  -2.119   1.394  0.00  0.00    +0.240 C 
BRANCH  12  13
ATOM     13  C   LIG    1        3.740  -0.959   1.634  0.00  0.00    +0.030 C 
BRANCH  13  14
ATOM     14  C   LIG    1        5.150  -1.510   1.858  0.00  0.00    +0.020 C 
ATOM     15  C   LIG    1        6.119  -0.351   2.098  0.00  0.00    +0.030 C 
ENDBRANCH  13  14
ENDBRANCH  12  13
ENDBRANCH   1  12
TORSDOF 6
ENDMDL
MODEL       39
REMARK  Name = ZINC001208193941
REMARK                            x       y       z     vdW  Elec       q    Type
REMARK                         _______ _______ _______ _____ _____    ______ ____
ROOT
ATOM      1  C   LIG    1       -2.929  -3.233  -2.488  0.00  0.00    +0.030 C 
ENDROOT
BRANCH   1   2
ATOM      2  C   LIG    1       -2.990  -2.179  -1.381  0.00  0.00    +0.250 C 
BRANCH   2   3
ATOM      3  N   LIG    1       -1.936  -1.179  -1.598  0.00  0.00    -0.380 N 
ATOM      4  C   LIG    1       -2.204  -0.449  -2.845  0.00  0.00    +0.310 C 
ATOM      5  H   LIG    1       -1.042  -1.641  -1.665  0.00  0.00    +0.430 HD
BRANCH   3   6
ATOM      6  C   LIG    1       -1.917  -0.235  -0.473  0.00  0.00    +0.290 C 
BRANCH   6   8
ATOM      7  C   LIG    1       -0.969   2.009  -0.629  0.00  0.00    +0.120 C 
ATOM      8  C   LIG    1       -0.760   0.716  -0.634  0.00  0.00    -0.110 C 
ENDBRANCH   6   8
ENDBRANCH   3   6
ENDBRANCH   2   3
ENDBRANCH   1   2
BRANCH   1   9
ATOM      9  C   LIG    1       -4.026  -4.275  -2.262  0.00  0.00    +0.020 C 
BRANCH   9  10
ATOM     10  C   LIG    1       -3.965  -5.329  -3.369  0.00  0.00    +0.030 C 
BRANCH  10  11
ATOM     11  C   LIG    1       -5.062  -6.371  -3.143  0.00  0.00    +0.050 C 
BRANCH  11  12
ATOM     12  C   LIG    1       -5.002  -7.409  -4.234  0.00  0.00    -0.060 C 
ATOM     13  C   LIG    1       -4.945  -8.681  -3.925  0.00  0.00    -0.040 C 
BRANCH  13  14
ATOM     14  C   LIG    1       -5.112  -9.117  -2.492  0.00  0.00    +0.030 C 
ATOM     15  C   LIG    1       -6.218 -10.169  -2.404  0.00  0.00    +0.030 C 
ENDBRANCH  13  14
ENDBRANCH  11  12
ENDBRANCH  10  11
ENDBRANCH   9  10
ENDBRANCH   1   9
TORSDOF 9
ENDMDL
MODEL       40
REMARK  Name = ZINC001208662707
REMARK                            x       y       z     vdW  Elec       q    Type
REMARK                         _______ _______ _______ _____ _____    ______ ____
ROOT
ATOM      1  C   LIG    1        1.865  -3.584   2.323  0.00  0.00    +0.030 C 
ENDROOT
BRANCH   1   2
ATOM      2  C   LIG    1        3.255  -4.068   2.740  0.00  0.00    +0.000 C 
ATOM      3  C   LIG    1        4.121  -2.865   3.120  0.00  0.00    +0.020 C 
BRANCH   2   4
ATOM      4  C   LIG    1        3.129  -5.006   3.942  0.00  0.00    +0.040 C 
BRANCH   4   5
ATOM      5  C   LIG    1        4.490  -5.638   4.240  0.00  0.00    -0.070 C 
ATOM      6  C   LIG    1        5.042  -6.287   2.969  0.00  0.00    +0.020 C 
ATOM      7  C   LIG    1        4.331  -6.702   5.327  0.00  0.00    +0.030 C 
ATOM      8  C   LIG    1        5.460  -4.557   4.722  0.00  0.00    +0.030 C 
ENDBRANCH   4   5
ENDBRANCH   2   4
ENDBRANCH   1   2
BRANCH   1   9
ATOM      9  C   LIG    1        1.978  -2.747   1.047  0.00  0.00    +0.250 C 
BRANCH   9  10
ATOM     10  N   LIG    1        0.643  -2.282   0.647  0.00  0.00    -0.380 N 
ATOM     11  C   LIG    1        0.117  -1.366   1.667  0.00  0.00    +0.310 C 
ATOM     12  H   LIG    1        0.025  -3.074   0.555  0.00  0.00    +0.420 HD
BRANCH  10  13
ATOM     13  C   LIG    1        0.734  -1.581  -0.641  0.00  0.00    +0.290 C 
BRANCH  13  15
ATOM     14  C   LIG    1       -0.932   0.034  -1.401  0.00  0.00    +0.120 C 
ATOM     15  C   LIG    1       -0.649  -1.212  -1.111  0.00  0.00    -0.110 C 
ENDBRANCH  13  15
ENDBRANCH  10  13
ENDBRANCH   9  10
ENDBRANCH   1   9
TORSDOF 7
ENDMDL
MODEL       41
REMARK  Name = ZINC001208662716
REMARK                            x       y       z     vdW  Elec       q    Type
REMARK                         _______ _______ _______ _____ _____    ______ ____
ROOT
ATOM      1  C   LIG    1        2.002  -4.035   2.436  0.00  0.00    +0.040 C 
ENDROOT
BRANCH   1   2
ATOM      2  C   LIG    1        3.276  -4.834   2.155  0.00  0.00    +0.000 C 
ATOM      3  C   LIG    1        3.028  -5.795   0.990  0.00  0.00    +0.020 C 
BRANCH   2   4
ATOM      4  C   LIG    1        3.663  -5.632   3.401  0.00  0.00    +0.020 C 
BRANCH   4   5
ATOM      5  C   LIG    1        5.151  -5.980   3.343  0.00  0.00    -0.070 C 
ATOM      6  C   LIG    1        5.455  -6.699   2.027  0.00  0.00    +0.030 C 
ATOM      7  C   LIG    1        5.508  -6.893   4.518  0.00  0.00    +0.030 C 
ATOM      8  C   LIG    1        5.979  -4.696   3.425  0.00  0.00    +0.020 C 
ENDBRANCH   4   5
ENDBRANCH   2   4
ENDBRANCH   1   2
BRANCH   1   9
ATOM      9  C   LIG    1        1.685  -3.142   1.234  0.00  0.00    +0.250 C 
BRANCH   9  10
ATOM     10  N   LIG    1        0.462  -2.374   1.504  0.00  0.00    -0.380 N 
ATOM     11  C   LIG    1        0.699  -1.452   2.622  0.00  0.00    +0.310 C 
ATOM     12  H   LIG    1       -0.287  -3.007   1.744  0.00  0.00    +0.420 HD
BRANCH  10  13
ATOM     13  C   LIG    1        0.090  -1.608   0.307  0.00  0.00    +0.290 C 
BRANCH  13  15
ATOM     14  C   LIG    1       -1.327   0.378   0.381  0.00  0.00    +0.120 C 
ATOM     15  C   LIG    1       -1.229  -0.918   0.541  0.00  0.00    -0.110 C 
ENDBRANCH  13  15
ENDBRANCH  10  13
ENDBRANCH   9  10
ENDBRANCH   1   9
TORSDOF 7
ENDMDL
MODEL       42
REMARK  Name = ZINC001208736122
REMARK                            x       y       z     vdW  Elec       q    Type
REMARK                         _______ _______ _______ _____ _____    ______ ____
ROOT
ATOM      1  N   LIG    1       -3.921  -4.241  -2.347  0.00  0.00    -0.390 N 
ATOM      2  C   LIG    1       -3.976  -5.093  -1.151  0.00  0.00    +0.300 C 
ATOM      3  H   LIG    1       -4.697  -3.596  -2.336  0.00  0.00    +0.420 HD
ENDROOT
BRANCH   1   4
ATOM      4  C   LIG    1       -2.659  -3.489  -2.355  0.00  0.00    +0.250 C 
BRANCH   4   5
ATOM      5  C   LIG    1       -2.633  -2.524  -1.168  0.00  0.00    +0.030 C 
BRANCH   5   6
ATOM      6  C   LIG    1       -1.319  -1.741  -1.176  0.00  0.00    +0.040 C 
BRANCH   6   7
ATOM      7  C   LIG    1       -1.293  -0.775   0.010  0.00  0.00    +0.050 C 
BRANCH   7   9
ATOM      8  C   LIG    1       -0.016   1.306   0.009  0.00  0.00    +0.020 C 
ATOM      9  C   LIG    1        0.002  -0.004   0.002  0.00  0.00    -0.060 C 
ENDBRANCH   7   9
ENDBRANCH   6   7
ENDBRANCH   5   6
ENDBRANCH   4   5
ENDBRANCH   1   4
BRANCH   1  10
ATOM     10  C   LIG    1       -3.999  -5.080  -3.550  0.00  0.00    +0.250 C 
BRANCH  10  11
ATOM     11  C   LIG    1       -5.365  -5.767  -3.605  0.00  0.00    +0.030 C 
BRANCH  11  12
ATOM     12  C   LIG    1       -5.446  -6.641  -4.858  0.00  0.00    +0.030 C 
BRANCH  12  13
ATOM     13  C   LIG    1       -6.812  -7.328  -4.913  0.00  0.00    -0.030 C 
ATOM     14  C   LIG    1       -6.944  -8.296  -3.736  0.00  0.00    +0.020 C 
ATOM     15  C   LIG    1       -6.941  -8.102  -6.227  0.00  0.00    +0.030 C 
ENDBRANCH  12  13
ENDBRANCH  11  12
ENDBRANCH  10  11
ENDBRANCH   1  10
TORSDOF 9
ENDMDL
MODEL       43
REMARK  Name = ZINC001208732565
REMARK                            x       y       z     vdW  Elec       q    Type
REMARK                         _______ _______ _______ _____ _____    ______ ____
ROOT
ATOM      1  N   LIG    1        1.501  -1.745   0.758  0.00  0.00    -0.380 N 
ATOM      2  H   LIG    1        1.537  -1.196   1.604  0.00  0.00    +0.420 HD
ENDROOT
BRANCH   1   3
ATOM      3  C   LIG    1        0.460  -2.773   0.886  0.00  0.00    +0.060 C 
ATOM      4  C   LIG    1       -0.888  -2.190   0.457  0.00  0.00    +0.100 C 
ATOM      5  C   LIG    1        0.375  -3.235   2.342  0.00  0.00    +0.080 C 
ATOM      6  C   LIG    1        0.807  -3.965  -0.007  0.00  0.00    +0.090 C 
ENDBRANCH   1   3
BRANCH   1   7
ATOM      7  C   LIG    1        1.189  -0.871  -0.380  0.00  0.00    +0.300 C 
BRANCH   7   9
ATOM      8  C   LIG    1        0.548   1.470  -0.119  0.00  0.00    +0.130 C 
ATOM      9  C   LIG    1        0.238   0.210   0.062  0.00  0.00    -0.110 C 
ENDBRANCH   7   9
ENDBRANCH   1   7
BRANCH   1  10
ATOM     10  C   LIG    1        2.802  -2.391   0.538  0.00  0.00    +0.260 C 
BRANCH  10  11
ATOM     11  C   LIG    1        3.186  -3.200   1.779  0.00  0.00    +0.080 C 
BRANCH  11  12
ATOM     12  C   LIG    1        4.589  -3.727   1.620  0.00  0.00    -0.070 C 
ATOM     13  C   LIG    1        5.481  -3.508   2.554  0.00  0.00    +0.000 C 
BRANCH  13  14
ATOM     14  C   LIG    1        5.069  -2.866   3.853  0.00  0.00    +0.040 C 
ATOM     15  C   LIG    1        5.542  -3.732   5.023  0.00  0.00    +0.030 C 
ENDBRANCH  13  14
ENDBRANCH  11  12
ENDBRANCH  10  11
ENDBRANCH   1  10
TORSDOF 7
ENDMDL
MODEL       44
REMARK  Name = ZINC001208729771
REMARK                            x       y       z     vdW  Elec       q    Type
REMARK                         _______ _______ _______ _____ _____    ______ ____
ROOT
ATOM      1  N   LIG    1       -4.170  -4.000  -2.492  0.00  0.00    -0.390 N 
ATOM      2  C   LIG    1       -3.974  -4.841  -1.303  0.00  0.00    +0.310 C 
ATOM      3  H   LIG    1       -5.035  -3.489  -2.403  0.00  0.00    +0.420 HD
ENDROOT
BRANCH   1   4
ATOM      4  C   LIG    1       -3.052  -3.055  -2.612  0.00  0.00    +0.250 C 
BRANCH   4   5
ATOM      5  C   LIG    1       -3.070  -2.090  -1.426  0.00  0.00    +0.030 C 
BRANCH   5   6
ATOM      6  C   LIG    1       -1.906  -1.105  -1.551  0.00  0.00    +0.040 C 
BRANCH   6   7
ATOM      7  C   LIG    1       -1.924  -0.139  -0.364  0.00  0.00    +0.050 C 
BRANCH   7   9
ATOM      8  C   LIG    1       -1.005   2.120  -0.469  0.00  0.00    +0.020 C 
ATOM      9  C   LIG    1       -0.777   0.830  -0.488  0.00  0.00    -0.060 C 
ENDBRANCH   7   9
ENDBRANCH   6   7
ENDBRANCH   5   6
ENDBRANCH   4   5
ENDBRANCH   1   4
BRANCH   1  10
ATOM     10  C   LIG    1       -4.224  -4.850  -3.689  0.00  0.00    +0.260 C 
BRANCH  10  11
ATOM     11  C   LIG    1       -5.460  -5.749  -3.621  0.00  0.00    +0.070 C 
BRANCH  11  12
ATOM     12  C   LIG    1       -5.516  -6.620  -4.850  0.00  0.00    -0.070 C 
ATOM     13  C   LIG    1       -5.644  -7.918  -4.727  0.00  0.00    +0.000 C 
BRANCH  13  14
ATOM     14  C   LIG    1       -5.906  -8.524  -3.372  0.00  0.00    +0.040 C 
ATOM     15  C   LIG    1       -7.149  -9.413  -3.443  0.00  0.00    +0.030 C 
ENDBRANCH  13  14
ENDBRANCH  11  12
ENDBRANCH  10  11
ENDBRANCH   1  10
TORSDOF 9
ENDMDL
MODEL       45
REMARK  Name = ZINC001208736872
REMARK                            x       y       z     vdW  Elec       q    Type
REMARK                         _______ _______ _______ _____ _____    ______ ____
ROOT
ATOM      1  N   LIG    1        1.508  -1.640   0.834  0.00  0.00    -0.380 N 
ATOM      2  H   LIG    1        1.562  -1.074   1.668  0.00  0.00    +0.420 HD
ENDROOT
BRANCH   1   3
ATOM      3  C   LIG    1        0.417  -2.614   0.974  0.00  0.00    +0.060 C 
ATOM      4  C   LIG    1       -0.896  -1.978   0.514  0.00  0.00    +0.100 C 
ATOM      5  C   LIG    1        0.294  -3.036   2.439  0.00  0.00    +0.080 C 
ATOM      6  C   LIG    1        0.717  -3.843   0.113  0.00  0.00    +0.090 C 
ENDBRANCH   1   3
BRANCH   1   7
ATOM      7  C   LIG    1        1.250  -0.779  -0.327  0.00  0.00    +0.300 C 
BRANCH   7   9
ATOM      8  C   LIG    1        0.700   1.592  -0.130  0.00  0.00    +0.130 C 
ATOM      9  C   LIG    1        0.338   0.351   0.078  0.00  0.00    -0.110 C 
ENDBRANCH   7   9
ENDBRANCH   1   7
BRANCH   1  10
ATOM     10  C   LIG    1        2.779  -2.352   0.643  0.00  0.00    +0.250 C 
BRANCH  10  11
ATOM     11  C   LIG    1        3.105  -3.159   1.901  0.00  0.00    +0.030 C 
BRANCH  11  12
ATOM     12  C   LIG    1        4.501  -3.771   1.766  0.00  0.00    +0.030 C 
BRANCH  12  13
ATOM     13  C   LIG    1        4.828  -4.578   3.024  0.00  0.00    -0.030 C 
ATOM     14  C   LIG    1        6.269  -5.085   2.945  0.00  0.00    +0.030 C 
ATOM     15  C   LIG    1        3.873  -5.769   3.128  0.00  0.00    +0.020 C 
ENDBRANCH  12  13
ENDBRANCH  11  12
ENDBRANCH  10  11
ENDBRANCH   1  10
TORSDOF 7
ENDMDL
MODEL       46
REMARK  Name = ZINC001209162407
REMARK                            x       y       z     vdW  Elec       q    Type
REMARK                         _______ _______ _______ _____ _____    ______ ____
ROOT
ATOM      1  N   LIG    1        2.755  -3.402   2.274  0.00  0.00    -0.390 N 
ATOM      2  C   LIG    1        2.746  -2.651   3.536  0.00  0.00    +0.320 C 
ATOM      3  H   LIG    1        1.952  -4.013   2.240  0.00  0.00    +0.420 HD
ENDROOT
BRANCH   1   4
ATOM      4  C   LIG    1        2.705  -2.464   1.145  0.00  0.00    +0.250 C 
BRANCH   4   5
ATOM      5  C   LIG    1        1.370  -1.717   1.161  0.00  0.00    +0.040 C 
BRANCH   5   6
ATOM      6  C   LIG    1        1.317  -0.740  -0.015  0.00  0.00    +0.070 C 
BRANCH   6   8
ATOM      7  C   LIG    1       -0.016   1.306   0.009  0.00  0.00    +0.030 C 
ATOM      8  C   LIG    1        0.002  -0.004   0.002  0.00  0.00    -0.070 C 
ENDBRANCH   6   8
ENDBRANCH   5   6
ENDBRANCH   4   5
ENDBRANCH   1   4
BRANCH   1   9
ATOM      9  C   LIG    1        3.983  -4.204   2.190  0.00  0.00    +0.250 C 
BRANCH   9  10
ATOM     10  C   LIG    1        3.977  -5.265   3.293  0.00  0.00    +0.030 C 
BRANCH  10  11
ATOM     11  C   LIG    1        5.256  -6.099   3.205  0.00  0.00    +0.020 C 
BRANCH  11  12
ATOM     12  C   LIG    1        5.249  -7.160   4.308  0.00  0.00    +0.020 C 
BRANCH  12  13
ATOM     13  C   LIG    1        6.528  -7.995   4.221  0.00  0.00    +0.000 C 
BRANCH  13  14
ATOM     14  C   LIG    1        6.521  -9.056   5.323  0.00  0.00    -0.010 C 
ATOM     15  C   LIG    1        7.800  -9.890   5.236  0.00  0.00    +0.000 C 
ENDBRANCH  13  14
ENDBRANCH  12  13
ENDBRANCH  11  12
ENDBRANCH  10  11
ENDBRANCH   9  10
ENDBRANCH   1   9
TORSDOF 10
ENDMDL
MODEL       47
REMARK  Name = ZINC001209200377
REMARK                            x       y       z     vdW  Elec       q    Type
REMARK                         _______ _______ _______ _____ _____    ______ ____
ROOT
ATOM      1  N   LIG    1        4.047  -4.163   2.304  0.00  0.00    -0.370 N 
ATOM      2  C   LIG    1        4.157  -4.902   1.059  0.00  0.00    +0.150 C 
ATOM      3  C   LIG    1        5.298  -5.910   1.043  0.00  0.00    +0.070 C 
ATOM      4  C   LIG    1        5.232  -6.809   2.278  0.00  0.00    +0.030 C 
ATOM      5  C   LIG    1        5.319  -5.926   3.523  0.00  0.00    +0.060 C 
ATOM      6  C   LIG    1        2.840  -5.579   0.679  0.00  0.00    +0.080 C 
ATOM      7  C   LIG    1        4.180  -4.916   3.539  0.00  0.00    +0.150 C 
ATOM      8  C   LIG    1        2.869  -5.593   3.939  0.00  0.00    +0.080 C 
ATOM      9  H   LIG    1        4.779  -3.441   2.301  0.00  0.00    +0.420 HD
ENDROOT
BRANCH   1  10
ATOM     10  C   LIG    1        2.757  -3.441   2.321  0.00  0.00    +0.240 C 
BRANCH  10  11
ATOM     11  C   LIG    1        2.705  -2.464   1.145  0.00  0.00    +0.030 C 
BRANCH  11  12
ATOM     12  C   LIG    1        1.370  -1.717   1.161  0.00  0.00    +0.040 C 
BRANCH  12  13
ATOM     13  C   LIG    1        1.317  -0.740  -0.015  0.00  0.00    +0.050 C 
BRANCH  13  15
ATOM     14  C   LIG    1       -0.016   1.306   0.009  0.00  0.00    +0.020 C 
ATOM     15  C   LIG    1        0.002  -0.004   0.002  0.00  0.00    -0.060 C 
ENDBRANCH  13  15
ENDBRANCH  12  13
ENDBRANCH  11  12
ENDBRANCH  10  11
ENDBRANCH   1  10
TORSDOF 5
ENDMDL
MODEL       48
REMARK  Name = ZINC001209201237
REMARK                            x       y       z     vdW  Elec       q    Type
REMARK                         _______ _______ _______ _____ _____    ______ ____
ROOT
ATOM      1  N   LIG    1        4.039  -4.159   2.305  0.00  0.00    -0.380 N 
ATOM      2  C   LIG    1        4.117  -4.995   1.100  0.00  0.00    +0.320 C 
ATOM      3  H   LIG    1        4.797  -3.492   2.301  0.00  0.00    +0.420 HD
ENDROOT
BRANCH   1   4
ATOM      4  C   LIG    1        4.140  -5.008   3.498  0.00  0.00    +0.170 C 
ATOM      5  C   LIG    1        5.475  -5.755   3.482  0.00  0.00    +0.040 C 
ATOM      6  C   LIG    1        5.580  -6.640   4.725  0.00  0.00    +0.030 C 
ATOM      7  C   LIG    1        5.499  -5.769   5.980  0.00  0.00    +0.020 C 
ATOM      8  C   LIG    1        4.164  -5.022   5.997  0.00  0.00    +0.030 C 
ATOM      9  C   LIG    1        4.059  -4.137   4.753  0.00  0.00    +0.040 C 
ENDBRANCH   1   4
BRANCH   1  10
ATOM     10  C   LIG    1        2.757  -3.441   2.321  0.00  0.00    +0.240 C 
BRANCH  10  11
ATOM     11  C   LIG    1        2.705  -2.464   1.145  0.00  0.00    +0.030 C 
BRANCH  11  12
ATOM     12  C   LIG    1        1.370  -1.717   1.161  0.00  0.00    +0.030 C 
BRANCH  12  13
ATOM     13  C   LIG    1        1.317  -0.740  -0.015  0.00  0.00    +0.050 C 
BRANCH  13  15
ATOM     14  C   LIG    1       -0.016   1.306   0.009  0.00  0.00    +0.020 C 
ATOM     15  C   LIG    1        0.002  -0.004   0.002  0.00  0.00    -0.060 C 
ENDBRANCH  13  15
ENDBRANCH  12  13
ENDBRANCH  11  12
ENDBRANCH  10  11
ENDBRANCH   1  10
TORSDOF 6
ENDMDL
MODEL       49
REMARK  Name = ZINC001209206993
REMARK                            x       y       z     vdW  Elec       q    Type
REMARK                         _______ _______ _______ _____ _____    ______ ____
ROOT
ATOM      1  N   LIG    1        4.091  -4.070   2.235  0.00  0.00    -0.390 N 
ATOM      2  H   LIG    1        4.850  -3.410   2.301  0.00  0.00    +0.420 HD
ENDROOT
BRANCH   1   3
ATOM      3  C   LIG    1        2.811  -3.350   2.281  0.00  0.00    +0.250 C 
BRANCH   3   4
ATOM      4  C   LIG    1        2.766  -2.469   3.531  0.00  0.00    +0.030 C 
BRANCH   4   5
ATOM      5  C   LIG    1        1.493  -1.621   3.511  0.00  0.00    +0.050 C 
BRANCH   5   6
ATOM      6  C   LIG    1        1.448  -0.740   4.761  0.00  0.00    +0.050 C 
BRANCH   6   8
ATOM      7  C   LIG    1       -0.633   0.059   5.757  0.00  0.00    +0.020 C 
ATOM      8  C   LIG    1        0.195   0.096   4.742  0.00  0.00    -0.060 C 
ENDBRANCH   6   8
ENDBRANCH   5   6
ENDBRANCH   4   5
ENDBRANCH   3   4
ENDBRANCH   1   3
BRANCH   1   9
ATOM      9  C   LIG    1        4.162  -5.014   3.358  0.00  0.00    +0.250 C 
BRANCH   9  10
ATOM     10  C   LIG    1        5.543  -5.673   3.383  0.00  0.00    -0.030 C 
ATOM     11  C   LIG    1        5.577  -6.745   4.474  0.00  0.00    +0.070 C 
ATOM     12  C   LIG    1        6.608  -4.614   3.675  0.00  0.00    +0.030 C 
ENDBRANCH   9  10
ENDBRANCH   1   9
BRANCH   1  13
ATOM     13  C   LIG    1        4.192  -4.807   0.968  0.00  0.00    +0.240 C 
BRANCH  13  14
ATOM     14  C   LIG    1        4.260  -3.816  -0.195  0.00  0.00    +0.020 C 
ATOM     15  C   LIG    1        4.499  -4.577  -1.501  0.00  0.00    +0.060 C 
ENDBRANCH  13  14
ENDBRANCH   1  13
TORSDOF 9
ENDMDL
MODEL       50
REMARK  Name = ZINC001209202073
REMARK                            x       y       z     vdW  Elec       q    Type
REMARK                         _______ _______ _______ _____ _____    ______ ____
ROOT
ATOM      1  N   LIG    1        3.888  -4.190   2.142  0.00  0.00    -0.380 N 
ATOM      2  H   LIG    1        4.684  -3.570   2.151  0.00  0.00    +0.420 HD
ENDROOT
BRANCH   1   3
ATOM      3  C   LIG    1        3.934  -5.065   3.321  0.00  0.00    +0.160 C 
ATOM      4  C   LIG    1        2.654  -5.899   3.389  0.00  0.00    +0.080 C 
BRANCH   3   5
ATOM      5  C   LIG    1        4.054  -4.211   4.585  0.00  0.00    +0.050 C 
ATOM      6  C   LIG    1        5.373  -3.437   4.556  0.00  0.00    +0.020 C 
ENDBRANCH   3   5
ENDBRANCH   1   3
BRANCH   1   7
ATOM      7  C   LIG    1        2.650  -3.398   2.169  0.00  0.00    +0.240 C 
BRANCH   7   8
ATOM      8  C   LIG    1        2.672  -2.380   1.028  0.00  0.00    +0.030 C 
BRANCH   8   9
ATOM      9  C   LIG    1        1.344  -1.622   0.995  0.00  0.00    +0.040 C 
BRANCH   9  10
ATOM     10  C   LIG    1        1.365  -0.603  -0.146  0.00  0.00    +0.050 C 
BRANCH  10  12
ATOM     11  C   LIG    1        0.048   1.453  -0.125  0.00  0.00    +0.020 C 
ATOM     12  C   LIG    1        0.057   0.144  -0.178  0.00  0.00    -0.060 C 
ENDBRANCH  10  12
ENDBRANCH   9  10
ENDBRANCH   8   9
ENDBRANCH   7   8
ENDBRANCH   1   7
BRANCH   1  13
ATOM     13  C   LIG    1        3.919  -5.009   0.923  0.00  0.00    +0.240 C 
BRANCH  13  14
ATOM     14  C   LIG    1        5.262  -5.736   0.832  0.00  0.00    +0.020 C 
ATOM     15  C   LIG    1        5.346  -6.485  -0.500  0.00  0.00    +0.060 C 
ENDBRANCH  13  14
ENDBRANCH   1  13
TORSDOF 9
ENDMDL
MODEL       51
REMARK  Name = ZINC001209203232
REMARK                            x       y       z     vdW  Elec       q    Type
REMARK                         _______ _______ _______ _____ _____    ______ ____
ROOT
ATOM      1  N   LIG    1        4.039  -4.159   2.305  0.00  0.00    -0.380 N 
ATOM      2  C   LIG    1        4.118  -4.975   1.075  0.00  0.00    +0.250 C 
ATOM      3  C   LIG    1        5.187  -6.082   1.138  0.00  0.00    +0.060 C 
ATOM      4  C   LIG    1        6.485  -5.628   1.751  0.00  0.00    +0.020 C 
ATOM      5  C   LIG    1        6.445  -5.910   3.274  0.00  0.00    +0.030 C 
ATOM      6  C   LIG    1        5.604  -4.938   3.963  0.00  0.00    +0.050 C 
ATOM      7  C   LIG    1        4.139  -4.968   3.494  0.00  0.00    +0.160 C 
ATOM      8  C   LIG    1        3.234  -4.396   4.588  0.00  0.00    +0.090 C 
ATOM      9  H   LIG    1        4.791  -3.486   2.301  0.00  0.00    +0.420 HD
ENDROOT
BRANCH   1  10
ATOM     10  C   LIG    1        2.757  -3.441   2.321  0.00  0.00    +0.250 C 
BRANCH  10  11
ATOM     11  C   LIG    1        2.705  -2.464   1.145  0.00  0.00    +0.030 C 
BRANCH  11  12
ATOM     12  C   LIG    1        1.370  -1.717   1.161  0.00  0.00    +0.030 C 
BRANCH  12  13
ATOM     13  C   LIG    1        1.317  -0.740  -0.015  0.00  0.00    +0.050 C 
BRANCH  13  15
ATOM     14  C   LIG    1       -0.016   1.306   0.009  0.00  0.00    +0.020 C 
ATOM     15  C   LIG    1        0.002  -0.004   0.002  0.00  0.00    -0.060 C 
ENDBRANCH  13  15
ENDBRANCH  12  13
ENDBRANCH  11  12
ENDBRANCH  10  11
ENDBRANCH   1  10
TORSDOF 5
ENDMDL
MODEL       52
REMARK  Name = ZINC001209202074
REMARK                            x       y       z     vdW  Elec       q    Type
REMARK                         _______ _______ _______ _____ _____    ______ ____
ROOT
ATOM      1  N   LIG    1        4.225  -4.109   2.311  0.00  0.00    -0.380 N 
ATOM      2  H   LIG    1        5.029  -3.513   2.432  0.00  0.00    +0.420 HD
ENDROOT
BRANCH   1   3
ATOM      3  C   LIG    1        4.216  -5.139   3.359  0.00  0.00    +0.160 C 
ATOM      4  C   LIG    1        3.085  -6.133   3.088  0.00  0.00    +0.080 C 
BRANCH   3   5
ATOM      5  C   LIG    1        5.556  -5.878   3.358  0.00  0.00    +0.050 C 
ATOM      6  C   LIG    1        6.676  -4.903   3.725  0.00  0.00    +0.030 C 
ENDBRANCH   3   5
ENDBRANCH   1   3
BRANCH   1   7
ATOM      7  C   LIG    1        3.000  -3.304   2.406  0.00  0.00    +0.240 C 
BRANCH   7   8
ATOM      8  C   LIG    1        2.993  -2.540   3.732  0.00  0.00    +0.030 C 
BRANCH   8   9
ATOM      9  C   LIG    1        1.789  -1.598   3.772  0.00  0.00    +0.040 C 
BRANCH   9  10
ATOM     10  C   LIG    1        1.783  -0.834   5.098  0.00  0.00    +0.050 C 
BRANCH  10  12
ATOM     11  C   LIG    1       -0.255   0.029   6.131  0.00  0.00    +0.020 C 
ATOM     12  C   LIG    1        0.596   0.095   5.137  0.00  0.00    -0.060 C 
ENDBRANCH  10  12
ENDBRANCH   9  10
ENDBRANCH   8   9
ENDBRANCH   7   8
ENDBRANCH   1   7
BRANCH   1  13
ATOM     13  C   LIG    1        4.286  -4.753   0.992  0.00  0.00    +0.240 C 
BRANCH  13  14
ATOM     14  C   LIG    1        4.467  -3.686  -0.089  0.00  0.00    +0.020 C 
ATOM     15  C   LIG    1        4.439  -4.346  -1.468  0.00  0.00    +0.060 C 
ENDBRANCH  13  14
ENDBRANCH   1  13
TORSDOF 9
ENDMDL
MODEL       53
REMARK  Name = ZINC001209204673
REMARK                            x       y       z     vdW  Elec       q    Type
REMARK                         _______ _______ _______ _____ _____    ______ ____
ROOT
ATOM      1  N   LIG    1       -3.854  -4.250  -2.350  0.00  0.00    -0.380 N 
ATOM      2  C   LIG    1       -3.848  -5.188  -1.221  0.00  0.00    +0.250 C 
ATOM      3  C   LIG    1       -5.207  -5.883  -1.122  0.00  0.00    +0.050 C 
ATOM      4  C   LIG    1       -5.481  -6.646  -2.421  0.00  0.00    +0.030 C 
ATOM      5  C   LIG    1       -5.412  -5.670  -3.599  0.00  0.00    +0.060 C 
ATOM      6  C   LIG    1       -4.044  -4.985  -3.606  0.00  0.00    +0.160 C 
ATOM      7  H   LIG    1       -4.607  -3.589  -2.231  0.00  0.00    +0.420 HD
ENDROOT
BRANCH   6   8
ATOM      8  C   LIG    1       -3.969  -4.008  -4.781  0.00  0.00    +0.030 C 
ATOM      9  C   LIG    1       -4.106  -4.779  -6.095  0.00  0.00    +0.060 C 
ENDBRANCH   6   8
BRANCH   1  10
ATOM     10  C   LIG    1       -2.575  -3.530  -2.394  0.00  0.00    +0.240 C 
BRANCH  10  11
ATOM     11  C   LIG    1       -2.430  -2.670  -1.136  0.00  0.00    +0.030 C 
BRANCH  11  12
ATOM     12  C   LIG    1       -1.097  -1.920  -1.182  0.00  0.00    +0.040 C 
BRANCH  12  13
ATOM     13  C   LIG    1       -0.953  -1.060   0.075  0.00  0.00    +0.050 C 
BRANCH  13  15
ATOM     14  C   LIG    1        0.382   0.984   0.148  0.00  0.00    +0.020 C 
ATOM     15  C   LIG    1        0.360  -0.321   0.030  0.00  0.00    -0.060 C 
ENDBRANCH  13  15
ENDBRANCH  12  13
ENDBRANCH  11  12
ENDBRANCH  10  11
ENDBRANCH   1  10
TORSDOF 6
ENDMDL
MODEL       54
REMARK  Name = ZINC001209205419
REMARK                            x       y       z     vdW  Elec       q    Type
REMARK                         _______ _______ _______ _____ _____    ______ ____
ROOT
ATOM      1  N   LIG    1       -4.196  -4.011  -2.758  0.00  0.00    -0.380 N 
ATOM      2  H   LIG    1       -5.113  -3.596  -2.822  0.00  0.00    +0.420 HD
ENDROOT
BRANCH   1   3
ATOM      3  C   LIG    1       -4.026  -4.624  -1.434  0.00  0.00    +0.240 C 
ATOM      4  C   LIG    1       -4.340  -3.591  -0.350  0.00  0.00    +0.080 C 
ENDBRANCH   1   3
BRANCH   1   5
ATOM      5  C   LIG    1       -3.175  -2.971  -2.951  0.00  0.00    +0.240 C 
BRANCH   5   6
ATOM      6  C   LIG    1       -3.442  -2.232  -4.263  0.00  0.00    +0.020 C 
BRANCH   6   7
ATOM      7  C   LIG    1       -2.460  -1.066  -4.400  0.00  0.00    +0.040 C 
BRANCH   7   8
ATOM      8  C   LIG    1       -2.727  -0.326  -5.713  0.00  0.00    +0.050 C 
BRANCH   8  10
ATOM      9  C   LIG    1       -1.006   0.922  -6.914  0.00  0.00    +0.020 C 
ATOM     10  C   LIG    1       -1.760   0.822  -5.847  0.00  0.00    -0.060 C 
ENDBRANCH   8  10
ENDBRANCH   7   8
ENDBRANCH   6   7
ENDBRANCH   5   6
ENDBRANCH   1   5
BRANCH   1  11
ATOM     11  C   LIG    1       -4.049  -5.039  -3.797  0.00  0.00    +0.160 C 
BRANCH  11  12
ATOM     12  C   LIG    1       -5.371  -5.793  -3.958  0.00  0.00    +0.050 C 
ATOM     13  C   LIG    1       -6.442  -4.836  -4.484  0.00  0.00    +0.030 C 
ENDBRANCH  11  12
BRANCH  11  14
ATOM     14  C   LIG    1       -2.948  -6.021  -3.391  0.00  0.00    +0.050 C 
ATOM     15  C   LIG    1       -1.598  -5.302  -3.390  0.00  0.00    +0.030 C 
ENDBRANCH  11  14
ENDBRANCH   1  11
TORSDOF 9
ENDMDL
MODEL       55
REMARK  Name = ZINC001209204674
REMARK                            x       y       z     vdW  Elec       q    Type
REMARK                         _______ _______ _______ _____ _____    ______ ____
ROOT
ATOM      1  N   LIG    1       -3.921  -4.241  -2.347  0.00  0.00    -0.380 N 
ATOM      2  C   LIG    1       -3.976  -5.089  -1.150  0.00  0.00    +0.250 C 
ATOM      3  C   LIG    1       -2.760  -6.017  -1.121  0.00  0.00    +0.050 C 
ATOM      4  C   LIG    1       -2.767  -6.898  -2.374  0.00  0.00    +0.030 C 
ATOM      5  C   LIG    1       -2.784  -6.002  -3.616  0.00  0.00    +0.060 C 
ATOM      6  C   LIG    1       -3.999  -5.076  -3.551  0.00  0.00    +0.170 C 
ATOM      7  H   LIG    1       -4.696  -3.595  -2.336  0.00  0.00    +0.420 HD
ENDROOT
BRANCH   6   8
ATOM      8  C   LIG    1       -4.022  -4.178  -4.790  0.00  0.00    +0.050 C 
ATOM      9  C   LIG    1       -5.301  -3.339  -4.788  0.00  0.00    +0.030 C 
ENDBRANCH   6   8
BRANCH   1  10
ATOM     10  C   LIG    1       -2.659  -3.489  -2.355  0.00  0.00    +0.240 C 
BRANCH  10  11
ATOM     11  C   LIG    1       -2.633  -2.524  -1.168  0.00  0.00    +0.030 C 
BRANCH  11  12
ATOM     12  C   LIG    1       -1.319  -1.741  -1.176  0.00  0.00    +0.030 C 
BRANCH  12  13
ATOM     13  C   LIG    1       -1.293  -0.775   0.010  0.00  0.00    +0.050 C 
BRANCH  13  15
ATOM     14  C   LIG    1       -0.016   1.306   0.009  0.00  0.00    +0.020 C 
ATOM     15  C   LIG    1        0.002  -0.004   0.002  0.00  0.00    -0.060 C 
ENDBRANCH  13  15
ENDBRANCH  12  13
ENDBRANCH  11  12
ENDBRANCH  10  11
ENDBRANCH   1  10
TORSDOF 6
ENDMDL
MODEL       56
REMARK  Name = ZINC001209203301
REMARK                            x       y       z     vdW  Elec       q    Type
REMARK                         _______ _______ _______ _____ _____    ______ ____
ROOT
ATOM      1  N   LIG    1       -3.975  -4.155  -2.276  0.00  0.00    -0.390 N 
ATOM      2  H   LIG    1       -4.752  -3.514  -2.335  0.00  0.00    +0.420 HD
ENDROOT
BRANCH   1   3
ATOM      3  C   LIG    1       -2.714  -3.401  -2.315  0.00  0.00    +0.250 C 
BRANCH   3   4
ATOM      4  C   LIG    1       -2.693  -2.506  -3.555  0.00  0.00    +0.030 C 
BRANCH   4   5
ATOM      5  C   LIG    1       -1.443  -1.625  -3.527  0.00  0.00    +0.040 C 
BRANCH   5   6
ATOM      6  C   LIG    1       -1.422  -0.729  -4.767  0.00  0.00    +0.050 C 
BRANCH   6   8
ATOM      7  C   LIG    1        0.637   0.134  -5.755  0.00  0.00    +0.020 C 
ATOM      8  C   LIG    1       -0.191   0.139  -4.739  0.00  0.00    -0.060 C 
ENDBRANCH   6   8
ENDBRANCH   5   6
ENDBRANCH   4   5
ENDBRANCH   3   4
ENDBRANCH   1   3
BRANCH   1   9
ATOM      9  C   LIG    1       -4.023  -5.088  -3.409  0.00  0.00    +0.250 C 
BRANCH   9  10
ATOM     10  C   LIG    1       -5.386  -5.782  -3.441  0.00  0.00    +0.030 C 
BRANCH  10  11
ATOM     11  C   LIG    1       -5.436  -6.754  -4.622  0.00  0.00    +0.020 C 
ATOM     12  C   LIG    1       -6.799  -7.448  -4.653  0.00  0.00    +0.030 C 
ENDBRANCH  10  11
ENDBRANCH   9  10
ENDBRANCH   1   9
BRANCH   1  13
ATOM     13  C   LIG    1       -4.056  -4.908  -1.017  0.00  0.00    +0.240 C 
BRANCH  13  14
ATOM     14  C   LIG    1       -4.150  -3.932   0.157  0.00  0.00    +0.020 C 
ATOM     15  C   LIG    1       -4.369  -4.713   1.454  0.00  0.00    +0.060 C 
ENDBRANCH  13  14
ENDBRANCH   1  13
TORSDOF 10
ENDMDL
MODEL       57
REMARK  Name = ZINC001209207954
REMARK                            x       y       z     vdW  Elec       q    Type
REMARK                         _______ _______ _______ _____ _____    ______ ____
ROOT
ATOM      1  N   LIG    1        3.848  -4.042   2.300  0.00  0.00    -0.380 N 
ATOM      2  H   LIG    1        4.734  -3.571   2.401  0.00  0.00    +0.420 HD
ENDROOT
BRANCH   1   3
ATOM      3  C   LIG    1        3.877  -4.886   1.098  0.00  0.00    +0.060 C 
ATOM      4  C   LIG    1        2.459  -5.031   0.542  0.00  0.00    +0.090 C 
ATOM      5  C   LIG    1        4.427  -6.268   1.458  0.00  0.00    +0.100 C 
ATOM      6  C   LIG    1        4.775  -4.239   0.042  0.00  0.00    +0.080 C 
ENDBRANCH   1   3
BRANCH   1   7
ATOM      7  C   LIG    1        2.775  -3.047   2.173  0.00  0.00    +0.250 C 
BRANCH   7   8
ATOM      8  C   LIG    1        3.108  -2.080   1.035  0.00  0.00    +0.030 C 
BRANCH   8   9
ATOM      9  C   LIG    1        2.080  -0.947   1.012  0.00  0.00    +0.040 C 
BRANCH   9  10
ATOM     10  C   LIG    1        2.414   0.021  -0.126  0.00  0.00    +0.050 C 
BRANCH  10  12
ATOM     11  C   LIG    1        1.800   2.383  -0.092  0.00  0.00    +0.020 C 
ATOM     12  C   LIG    1        1.401   1.137  -0.150  0.00  0.00    -0.060 C 
ENDBRANCH  10  12
ENDBRANCH   9  10
ENDBRANCH   8   9
ENDBRANCH   7   8
ENDBRANCH   1   7
BRANCH   1  13
ATOM     13  C   LIG    1        3.601  -4.880   3.481  0.00  0.00    +0.300 C 
BRANCH  13  14
ATOM     14  C   LIG    1        4.905  -5.457   3.968  0.00  0.00    -0.110 C 
ATOM     15  C   LIG    1        5.260  -5.309   5.221  0.00  0.00    +0.130 C 
ENDBRANCH  13  14
ENDBRANCH   1  13
TORSDOF 8
ENDMDL
MODEL       58
REMARK  Name = ZINC001209203233
REMARK                            x       y       z     vdW  Elec       q    Type
REMARK                         _______ _______ _______ _____ _____    ______ ____
ROOT
ATOM      1  N   LIG    1        3.985  -4.244   2.239  0.00  0.00    -0.380 N 
ATOM      2  C   LIG    1        3.997  -4.957   0.985  0.00  0.00    +0.240 C 
ATOM      3  C   LIG    1        5.447  -4.991   0.475  0.00  0.00    +0.050 C 
ATOM      4  C   LIG    1        6.233  -6.071   1.058  0.00  0.00    +0.030 C 
ATOM      5  C   LIG    1        6.333  -5.919   2.596  0.00  0.00    +0.020 C 
ATOM      6  C   LIG    1        5.022  -6.331   3.211  0.00  0.00    +0.060 C 
ATOM      7  C   LIG    1        4.036  -5.164   3.396  0.00  0.00    +0.160 C 
ATOM      8  C   LIG    1        2.637  -5.737   3.627  0.00  0.00    +0.070 C 
ATOM      9  H   LIG    1        4.783  -3.628   2.274  0.00  0.00    +0.420 HD
ENDROOT
BRANCH   1  10
ATOM     10  C   LIG    1        2.757  -3.441   2.321  0.00  0.00    +0.240 C 
BRANCH  10  11
ATOM     11  C   LIG    1        2.770  -2.377   1.222  0.00  0.00    +0.030 C 
BRANCH  11  12
ATOM     12  C   LIG    1        1.561  -1.454   1.391  0.00  0.00    +0.040 C 
BRANCH  12  13
ATOM     13  C   LIG    1        1.574  -0.390   0.292  0.00  0.00    +0.050 C 
BRANCH  13  15
ATOM     14  C   LIG    1        0.556   1.813   0.558  0.00  0.00    +0.020 C 
ATOM     15  C   LIG    1        0.383   0.519   0.460  0.00  0.00    -0.060 C 
ENDBRANCH  13  15
ENDBRANCH  12  13
ENDBRANCH  11  12
ENDBRANCH  10  11
ENDBRANCH   1  10
TORSDOF 5
ENDMDL
MODEL       59
REMARK  Name = ZINC001209421435
REMARK                            x       y       z     vdW  Elec       q    Type
REMARK                         _______ _______ _______ _____ _____    ______ ____
ROOT
ATOM      1  N   LIG    1       -4.243  -6.121   0.010  0.00  0.00    -0.380 N 
ATOM      2  C   LIG    1       -3.639  -6.610   1.257  0.00  0.00    +0.310 C 
ATOM      3  H   LIG    1       -3.700  -6.446  -0.776  0.00  0.00    +0.420 HD
ENDROOT
BRANCH   1   4
ATOM      4  C   LIG    1       -4.263  -4.652   0.018  0.00  0.00    +0.250 C 
BRANCH   4   5
ATOM      5  C   LIG    1       -2.827  -4.123   0.007  0.00  0.00    +0.030 C 
BRANCH   5   6
ATOM      6  C   LIG    1       -2.848  -2.593   0.015  0.00  0.00    +0.020 C 
BRANCH   6   7
ATOM      7  C   LIG    1       -1.413  -2.063   0.004  0.00  0.00    +0.020 C 
BRANCH   7   8
ATOM      8  C   LIG    1       -1.433  -0.534   0.013  0.00  0.00    +0.000 C 
BRANCH   8  10
ATOM      9  C   LIG    1       -0.019   1.526   0.010  0.00  0.00    +0.000 C 
ATOM     10  C   LIG    1        0.002  -0.004   0.002  0.00  0.00    -0.010 C 
ENDBRANCH   8  10
ENDBRANCH   7   8
ENDBRANCH   6   7
ENDBRANCH   5   6
ENDBRANCH   4   5
ENDBRANCH   1   4
BRANCH   1  11
ATOM     11  C   LIG    1       -5.617  -6.629  -0.101  0.00  0.00    +0.290 C 
BRANCH  11  12
ATOM     12  C   LIG    1       -5.588  -8.153  -0.234  0.00  0.00    -0.090 C 
ATOM     13  C   LIG    1       -6.232  -8.973   0.885  0.00  0.00    +0.060 C 
ATOM     14  C   LIG    1       -6.920  -8.866  -0.478  0.00  0.00    +0.000 C 
ATOM     15  C   LIG    1       -6.905 -10.105  -1.376  0.00  0.00    +0.070 C 
ENDBRANCH  11  12
ENDBRANCH   1  11
TORSDOF 8
ENDMDL
MODEL       60
REMARK  Name = ZINC001209421436
REMARK                            x       y       z     vdW  Elec       q    Type
REMARK                         _______ _______ _______ _____ _____    ______ ____
ROOT
ATOM      1  N   LIG    1       -4.243  -6.121   0.010  0.00  0.00    -0.380 N 
ATOM      2  C   LIG    1       -3.639  -6.610   1.257  0.00  0.00    +0.320 C 
ATOM      3  H   LIG    1       -3.700  -6.446  -0.776  0.00  0.00    +0.430 HD
ENDROOT
BRANCH   1   4
ATOM      4  C   LIG    1       -4.263  -4.652   0.018  0.00  0.00    +0.250 C 
BRANCH   4   5
ATOM      5  C   LIG    1       -2.827  -4.123   0.007  0.00  0.00    +0.030 C 
BRANCH   5   6
ATOM      6  C   LIG    1       -2.848  -2.593   0.015  0.00  0.00    +0.020 C 
BRANCH   6   7
ATOM      7  C   LIG    1       -1.413  -2.063   0.004  0.00  0.00    +0.020 C 
BRANCH   7   8
ATOM      8  C   LIG    1       -1.433  -0.534   0.013  0.00  0.00    +0.000 C 
BRANCH   8  10
ATOM      9  C   LIG    1       -0.019   1.526   0.010  0.00  0.00    +0.000 C 
ATOM     10  C   LIG    1        0.002  -0.004   0.002  0.00  0.00    -0.010 C 
ENDBRANCH   8  10
ENDBRANCH   7   8
ENDBRANCH   6   7
ENDBRANCH   5   6
ENDBRANCH   4   5
ENDBRANCH   1   4
BRANCH   1  11
ATOM     11  C   LIG    1       -5.617  -6.629  -0.101  0.00  0.00    +0.290 C 
BRANCH  11  12
ATOM     12  C   LIG    1       -5.588  -8.153  -0.234  0.00  0.00    -0.080 C 
ATOM     13  C   LIG    1       -6.117  -8.758  -1.537  0.00  0.00    +0.060 C 
ATOM     14  C   LIG    1       -6.931  -8.886  -0.246  0.00  0.00    +0.000 C 
ATOM     15  C   LIG    1       -8.200  -8.040  -0.124  0.00  0.00    +0.060 C 
ENDBRANCH  11  12
ENDBRANCH   1  11
TORSDOF 8
ENDMDL
MODEL       61
REMARK  Name = ZINC001209421433
REMARK                            x       y       z     vdW  Elec       q    Type
REMARK                         _______ _______ _______ _____ _____    ______ ____
ROOT
ATOM      1  N   LIG    1       -4.243  -6.121   0.010  0.00  0.00    -0.380 N 
ATOM      2  C   LIG    1       -3.639  -6.610   1.257  0.00  0.00    +0.310 C 
ATOM      3  H   LIG    1       -3.700  -6.446  -0.776  0.00  0.00    +0.420 HD
ENDROOT
BRANCH   1   4
ATOM      4  C   LIG    1       -4.263  -4.652   0.018  0.00  0.00    +0.250 C 
BRANCH   4   5
ATOM      5  C   LIG    1       -2.827  -4.123   0.007  0.00  0.00    +0.030 C 
BRANCH   5   6
ATOM      6  C   LIG    1       -2.848  -2.593   0.015  0.00  0.00    +0.020 C 
BRANCH   6   7
ATOM      7  C   LIG    1       -1.413  -2.063   0.004  0.00  0.00    +0.020 C 
BRANCH   7   8
ATOM      8  C   LIG    1       -1.433  -0.534   0.013  0.00  0.00    +0.000 C 
BRANCH   8  10
ATOM      9  C   LIG    1       -0.019   1.526   0.010  0.00  0.00    +0.000 C 
ATOM     10  C   LIG    1        0.002  -0.004   0.002  0.00  0.00    -0.010 C 
ENDBRANCH   8  10
ENDBRANCH   7   8
ENDBRANCH   6   7
ENDBRANCH   5   6
ENDBRANCH   4   5
ENDBRANCH   1   4
BRANCH   1  11
ATOM     11  C   LIG    1       -5.617  -6.629  -0.101  0.00  0.00    +0.290 C 
BRANCH  11  12
ATOM     12  C   LIG    1       -5.588  -8.153  -0.234  0.00  0.00    -0.090 C 
ATOM     13  C   LIG    1       -6.232  -8.973   0.885  0.00  0.00    +0.060 C 
ATOM     14  C   LIG    1       -6.920  -8.866  -0.478  0.00  0.00    +0.000 C 
ATOM     15  C   LIG    1       -8.179  -8.001  -0.568  0.00  0.00    +0.060 C 
ENDBRANCH  11  12
ENDBRANCH   1  11
TORSDOF 8
ENDMDL
MODEL       62
REMARK  Name = ZINC001209421434
REMARK                            x       y       z     vdW  Elec       q    Type
REMARK                         _______ _______ _______ _____ _____    ______ ____
ROOT
ATOM      1  N   LIG    1       -4.243  -6.121   0.010  0.00  0.00    -0.380 N 
ATOM      2  C   LIG    1       -3.639  -6.610   1.257  0.00  0.00    +0.320 C 
ATOM      3  H   LIG    1       -3.700  -6.446  -0.776  0.00  0.00    +0.430 HD
ENDROOT
BRANCH   1   4
ATOM      4  C   LIG    1       -4.263  -4.652   0.018  0.00  0.00    +0.250 C 
BRANCH   4   5
ATOM      5  C   LIG    1       -2.827  -4.123   0.007  0.00  0.00    +0.030 C 
BRANCH   5   6
ATOM      6  C   LIG    1       -2.848  -2.593   0.015  0.00  0.00    +0.020 C 
BRANCH   6   7
ATOM      7  C   LIG    1       -1.413  -2.063   0.004  0.00  0.00    +0.020 C 
BRANCH   7   8
ATOM      8  C   LIG    1       -1.433  -0.534   0.013  0.00  0.00    +0.000 C 
BRANCH   8  10
ATOM      9  C   LIG    1       -0.019   1.526   0.010  0.00  0.00    +0.000 C 
ATOM     10  C   LIG    1        0.002  -0.004   0.002  0.00  0.00    -0.010 C 
ENDBRANCH   8  10
ENDBRANCH   7   8
ENDBRANCH   6   7
ENDBRANCH   5   6
ENDBRANCH   4   5
ENDBRANCH   1   4
BRANCH   1  11
ATOM     11  C   LIG    1       -5.617  -6.629  -0.101  0.00  0.00    +0.290 C 
BRANCH  11  12
ATOM     12  C   LIG    1       -5.588  -8.153  -0.234  0.00  0.00    -0.080 C 
ATOM     13  C   LIG    1       -6.117  -8.758  -1.537  0.00  0.00    +0.060 C 
ATOM     14  C   LIG    1       -6.931  -8.886  -0.246  0.00  0.00    +0.000 C 
ATOM     15  C   LIG    1       -6.990 -10.264   0.417  0.00  0.00    +0.070 C 
ENDBRANCH  11  12
ENDBRANCH   1  11
TORSDOF 8
ENDMDL
MODEL       63
REMARK  Name = ZINC001209430946
REMARK                            x       y       z     vdW  Elec       q    Type
REMARK                         _______ _______ _______ _____ _____    ______ ____
ROOT
ATOM      1  C   LIG    1        4.221  -5.053   3.412  0.00  0.00    +0.250 C 
ENDROOT
BRANCH   1   2
ATOM      2  N   LIG    1        5.380  -5.956   3.389  0.00  0.00    -0.360 N 
ATOM      3  H   LIG    1        6.229  -5.415   3.455  0.00  0.00    +0.420 HD
BRANCH   2   4
ATOM      4  C   LIG    1        5.301  -6.883   4.526  0.00  0.00    +0.090 C 
ATOM      5  C   LIG    1        6.533  -7.006   5.424  0.00  0.00    +0.100 C 
ATOM      6  C   LIG    1        5.287  -6.278   5.931  0.00  0.00    +0.090 C 
ENDBRANCH   2   4
BRANCH   2   7
ATOM      7  C   LIG    1        5.382  -6.719   2.134  0.00  0.00    +0.250 C 
ATOM      8  C   LIG    1        6.662  -7.553   2.046  0.00  0.00    +0.070 C 
ENDBRANCH   2   7
ENDBRANCH   1   2
BRANCH   1   9
ATOM      9  C   LIG    1        4.375  -3.998   2.314  0.00  0.00    +0.030 C 
BRANCH   9  10
ATOM     10  C   LIG    1        3.134  -3.104   2.289  0.00  0.00    +0.020 C 
BRANCH  10  11
ATOM     11  C   LIG    1        3.288  -2.049   1.192  0.00  0.00    +0.020 C 
BRANCH  11  12
ATOM     12  C   LIG    1        2.046  -1.155   1.166  0.00  0.00    +0.020 C 
BRANCH  12  13
ATOM     13  C   LIG    1        2.200  -0.100   0.069  0.00  0.00    +0.050 C 
BRANCH  13  15
ATOM     14  C   LIG    1        1.104   2.080   0.151  0.00  0.00    +0.010 C 
ATOM     15  C   LIG    1        0.978   0.781   0.044  0.00  0.00    -0.060 C 
ENDBRANCH  13  15
ENDBRANCH  12  13
ENDBRANCH  11  12
ENDBRANCH  10  11
ENDBRANCH   9  10
ENDBRANCH   1   9
TORSDOF 9
ENDMDL
MODEL       64
REMARK  Name = ZINC001209435439
REMARK                            x       y       z     vdW  Elec       q    Type
REMARK                         _______ _______ _______ _____ _____    ______ ____
ROOT
ATOM      1  C   LIG    1       -4.054  -5.294  -3.173  0.00  0.00    +0.240 C 
ENDROOT
BRANCH   1   2
ATOM      2  N   LIG    1       -5.357  -5.913  -3.450  0.00  0.00    -0.380 N 
ATOM      3  C   LIG    1       -5.623  -6.961  -2.456  0.00  0.00    +0.310 C 
ATOM      4  H   LIG    1       -6.080  -5.211  -3.401  0.00  0.00    +0.420 HD
BRANCH   2   5
ATOM      5  C   LIG    1       -5.341  -6.506  -4.794  0.00  0.00    +0.160 C 
ATOM      6  C   LIG    1       -4.151  -7.460  -4.916  0.00  0.00    +0.080 C 
BRANCH   5   7
ATOM      7  C   LIG    1       -5.215  -5.397  -5.840  0.00  0.00    +0.050 C 
ATOM      8  C   LIG    1       -6.443  -4.488  -5.770  0.00  0.00    +0.020 C 
ENDBRANCH   5   7
ENDBRANCH   2   5
ENDBRANCH   1   2
BRANCH   1   9
ATOM      9  C   LIG    1       -4.116  -4.551  -1.837  0.00  0.00    +0.030 C 
BRANCH   9  10
ATOM     10  C   LIG    1       -2.759  -3.906  -1.548  0.00  0.00    +0.020 C 
BRANCH  10  11
ATOM     11  C   LIG    1       -2.822  -3.163  -0.212  0.00  0.00    +0.020 C 
BRANCH  11  12
ATOM     12  C   LIG    1       -1.465  -2.519   0.077  0.00  0.00    +0.010 C 
BRANCH  12  13
ATOM     13  C   LIG    1       -1.527  -1.776   1.413  0.00  0.00    +0.050 C 
BRANCH  13  15
ATOM     14  C   LIG    1       -0.114   0.145   1.939  0.00  0.00    +0.010 C 
ATOM     15  C   LIG    1       -0.190  -1.141   1.698  0.00  0.00    -0.060 C 
ENDBRANCH  13  15
ENDBRANCH  12  13
ENDBRANCH  11  12
ENDBRANCH  10  11
ENDBRANCH   9  10
ENDBRANCH   1   9
TORSDOF 9
ENDMDL
MODEL       65
REMARK  Name = ZINC001209431984
REMARK                            x       y       z     vdW  Elec       q    Type
REMARK                         _______ _______ _______ _____ _____    ______ ____
ROOT
ATOM      1  C   LIG    1       -3.969  -5.303  -3.442  0.00  0.00    +0.250 C 
ENDROOT
BRANCH   1   2
ATOM      2  N   LIG    1       -5.215  -6.080  -3.451  0.00  0.00    -0.390 N 
ATOM      3  H   LIG    1       -5.367  -6.483  -2.539  0.00  0.00    +0.420 HD
BRANCH   2   4
ATOM      4  C   LIG    1       -5.116  -7.153  -4.450  0.00  0.00    +0.240 C 
ATOM      5  C   LIG    1       -4.038  -8.151  -4.021  0.00  0.00    +0.080 C 
ENDBRANCH   2   4
BRANCH   2   6
ATOM      6  C   LIG    1       -6.340  -5.198  -3.790  0.00  0.00    +0.240 C 
BRANCH   6   7
ATOM      7  C   LIG    1       -7.651  -5.978  -3.679  0.00  0.00    +0.030 C 
ATOM      8  C   LIG    1       -8.823  -5.059  -4.032  0.00  0.00    +0.060 C 
ENDBRANCH   6   7
ENDBRANCH   2   6
ENDBRANCH   1   2
BRANCH   1   9
ATOM      9  C   LIG    1       -4.014  -4.279  -2.306  0.00  0.00    +0.030 C 
BRANCH   9  10
ATOM     10  C   LIG    1       -2.665  -3.564  -2.209  0.00  0.00    +0.020 C 
BRANCH  10  11
ATOM     11  C   LIG    1       -2.711  -2.540  -1.073  0.00  0.00    +0.020 C 
BRANCH  11  12
ATOM     12  C   LIG    1       -1.362  -1.825  -0.976  0.00  0.00    +0.020 C 
BRANCH  12  13
ATOM     13  C   LIG    1       -1.408  -0.801   0.160  0.00  0.00    +0.050 C 
BRANCH  13  15
ATOM     14  C   LIG    1       -0.025   1.211   0.200  0.00  0.00    +0.010 C 
ATOM     15  C   LIG    1       -0.079  -0.097   0.256  0.00  0.00    -0.060 C 
ENDBRANCH  13  15
ENDBRANCH  12  13
ENDBRANCH  11  12
ENDBRANCH  10  11
ENDBRANCH   9  10
ENDBRANCH   1   9
TORSDOF 10
ENDMDL
MODEL       66
REMARK  Name = ZINC001209423588
REMARK                            x       y       z     vdW  Elec       q    Type
REMARK                         _______ _______ _______ _____ _____    ______ ____
ROOT
ATOM      1  N   LIG    1       -3.873  -5.198  -3.498  0.00  0.00    -0.390 N 
ATOM      2  H   LIG    1       -3.092  -5.834  -3.438  0.00  0.00    +0.420 HD
ENDROOT
BRANCH   1   3
ATOM      3  C   LIG    1       -3.770  -4.409  -4.733  0.00  0.00    +0.240 C 
ATOM      4  C   LIG    1       -2.403  -3.725  -4.787  0.00  0.00    +0.080 C 
ENDBRANCH   1   3
BRANCH   1   5
ATOM      5  C   LIG    1       -3.860  -4.297  -2.338  0.00  0.00    +0.250 C 
BRANCH   5   6
ATOM      6  C   LIG    1       -3.822  -5.122  -1.050  0.00  0.00    +0.030 C 
BRANCH   6   7
ATOM      7  C   LIG    1       -3.671  -4.187   0.151  0.00  0.00    +0.020 C 
BRANCH   7   8
ATOM      8  C   LIG    1       -3.633  -5.013   1.438  0.00  0.00    +0.020 C 
BRANCH   8   9
ATOM      9  C   LIG    1       -3.481  -4.077   2.640  0.00  0.00    +0.050 C 
BRANCH   9  11
ATOM     10  C   LIG    1       -2.440  -4.761   4.740  0.00  0.00    +0.020 C 
ATOM     11  C   LIG    1       -3.444  -4.890   3.908  0.00  0.00    -0.060 C 
ENDBRANCH   9  11
ENDBRANCH   8   9
ENDBRANCH   7   8
ENDBRANCH   6   7
ENDBRANCH   5   6
ENDBRANCH   1   5
BRANCH   1  12
ATOM     12  C   LIG    1       -5.128  -5.963  -3.509  0.00  0.00    +0.250 C 
BRANCH  12  13
ATOM     13  C   LIG    1       -5.089  -6.990  -4.643  0.00  0.00    +0.030 C 
BRANCH  13  14
ATOM     14  C   LIG    1       -6.395  -7.786  -4.655  0.00  0.00    +0.020 C 
ATOM     15  C   LIG    1       -6.356  -8.813  -5.789  0.00  0.00    +0.030 C 
ENDBRANCH  13  14
ENDBRANCH  12  13
ENDBRANCH   1  12
TORSDOF 10
ENDMDL
MODEL       67
REMARK  Name = ZINC001209431433
REMARK                            x       y       z     vdW  Elec       q    Type
REMARK                         _______ _______ _______ _____ _____    ______ ____
ROOT
ATOM      1  C   LIG    1        4.145  -5.166   3.480  0.00  0.00    +0.250 C 
ENDROOT
BRANCH   1   2
ATOM      2  N   LIG    1        5.427  -5.883   3.464  0.00  0.00    -0.390 N 
ATOM      3  C   LIG    1        5.497  -6.751   2.269  0.00  0.00    +0.250 C 
ATOM      4  C   LIG    1        6.253  -8.017   2.743  0.00  0.00    +0.080 C 
ATOM      5  C   LIG    1        5.707  -8.186   4.185  0.00  0.00    +0.070 C 
ATOM      6  C   LIG    1        5.536  -6.732   4.664  0.00  0.00    +0.160 C 
ATOM      7  C   LIG    1        6.752  -6.310   5.491  0.00  0.00    +0.090 C 
ATOM      8  H   LIG    1        6.187  -5.220   3.447  0.00  0.00    +0.420 HD
ENDBRANCH   1   2
BRANCH   1   9
ATOM      9  C   LIG    1        4.093  -4.188   2.304  0.00  0.00    +0.030 C 
BRANCH   9  10
ATOM     10  C   LIG    1        2.757  -3.441   2.321  0.00  0.00    +0.020 C 
BRANCH  10  11
ATOM     11  C   LIG    1        2.705  -2.464   1.145  0.00  0.00    +0.020 C 
BRANCH  11  12
ATOM     12  C   LIG    1        1.370  -1.717   1.161  0.00  0.00    +0.020 C 
BRANCH  12  13
ATOM     13  C   LIG    1        1.317  -0.740  -0.015  0.00  0.00    +0.050 C 
BRANCH  13  15
ATOM     14  C   LIG    1       -0.016   1.306   0.009  0.00  0.00    +0.010 C 
ATOM     15  C   LIG    1        0.002  -0.004   0.002  0.00  0.00    -0.060 C 
ENDBRANCH  13  15
ENDBRANCH  12  13
ENDBRANCH  11  12
ENDBRANCH  10  11
ENDBRANCH   9  10
ENDBRANCH   1   9
TORSDOF 7
ENDMDL
MODEL       68
REMARK  Name = ZINC001209435440
REMARK                            x       y       z     vdW  Elec       q    Type
REMARK                         _______ _______ _______ _____ _____    ______ ____
ROOT
ATOM      1  C   LIG    1       -3.981  -5.234  -3.561  0.00  0.00    +0.250 C 
ENDROOT
BRANCH   1   2
ATOM      2  N   LIG    1       -5.295  -5.891  -3.589  0.00  0.00    -0.380 N 
ATOM      3  C   LIG    1       -5.452  -6.723  -2.388  0.00  0.00    +0.320 C 
ATOM      4  H   LIG    1       -6.021  -5.191  -3.610  0.00  0.00    +0.420 HD
BRANCH   2   5
ATOM      5  C   LIG    1       -5.395  -6.736  -4.786  0.00  0.00    +0.160 C 
ATOM      6  C   LIG    1       -4.381  -7.878  -4.690  0.00  0.00    +0.080 C 
BRANCH   5   7
ATOM      7  C   LIG    1       -6.807  -7.315  -4.885  0.00  0.00    +0.050 C 
ATOM      8  C   LIG    1       -7.809  -6.181  -5.108  0.00  0.00    +0.020 C 
ENDBRANCH   5   7
ENDBRANCH   2   5
ENDBRANCH   1   2
BRANCH   1   9
ATOM      9  C   LIG    1       -3.932  -4.241  -2.398  0.00  0.00    +0.030 C 
BRANCH   9  10
ATOM     10  C   LIG    1       -2.564  -3.557  -2.370  0.00  0.00    +0.020 C 
BRANCH  10  11
ATOM     11  C   LIG    1       -2.515  -2.563  -1.207  0.00  0.00    +0.020 C 
BRANCH  11  12
ATOM     12  C   LIG    1       -1.146  -1.879  -1.179  0.00  0.00    +0.020 C 
BRANCH  12  13
ATOM     13  C   LIG    1       -1.097  -0.886  -0.016  0.00  0.00    +0.050 C 
BRANCH  13  15
ATOM     14  C   LIG    1        0.330   1.095  -0.013  0.00  0.00    +0.010 C 
ATOM     15  C   LIG    1        0.251  -0.212   0.012  0.00  0.00    -0.060 C 
ENDBRANCH  13  15
ENDBRANCH  12  13
ENDBRANCH  11  12
ENDBRANCH  10  11
ENDBRANCH   9  10
ENDBRANCH   1   9
TORSDOF 9
ENDMDL
MODEL       69
REMARK  Name = ZINC001209427565
REMARK                            x       y       z     vdW  Elec       q    Type
REMARK                         _______ _______ _______ _____ _____    ______ ____
ROOT
ATOM      1  N   LIG    1       -4.587  -4.963  -3.510  0.00  0.00    -0.390 N 
ATOM      2  C   LIG    1       -4.875  -4.053  -4.627  0.00  0.00    +0.300 C 
ATOM      3  H   LIG    1       -3.674  -5.373  -3.636  0.00  0.00    +0.420 HD
ENDROOT
BRANCH   1   4
ATOM      4  C   LIG    1       -4.617  -4.213  -2.248  0.00  0.00    +0.250 C 
BRANCH   4   5
ATOM      5  C   LIG    1       -3.481  -3.187  -2.237  0.00  0.00    +0.030 C 
BRANCH   5   6
ATOM      6  C   LIG    1       -3.511  -2.405  -0.922  0.00  0.00    +0.020 C 
BRANCH   6   7
ATOM      7  C   LIG    1       -2.376  -1.380  -0.912  0.00  0.00    +0.020 C 
BRANCH   7   8
ATOM      8  C   LIG    1       -2.406  -0.599   0.403  0.00  0.00    +0.050 C 
BRANCH   8  10
ATOM      9  C   LIG    1       -1.551   1.677   0.622  0.00  0.00    +0.020 C 
ATOM     10  C   LIG    1       -1.288   0.411   0.413  0.00  0.00    -0.060 C 
ENDBRANCH   8  10
ENDBRANCH   7   8
ENDBRANCH   6   7
ENDBRANCH   5   6
ENDBRANCH   4   5
ENDBRANCH   1   4
BRANCH   1  11
ATOM     11  C   LIG    1       -5.600  -6.026  -3.471  0.00  0.00    +0.260 C 
BRANCH  11  12
ATOM     12  C   LIG    1       -5.197  -7.149  -4.429  0.00  0.00    -0.090 C 
ATOM     13  C   LIG    1       -4.961  -6.569  -5.825  0.00  0.00    +0.040 C 
ATOM     14  C   LIG    1       -6.316  -8.191  -4.493  0.00  0.00    +0.070 C 
ATOM     15  C   LIG    1       -3.912  -7.811  -3.928  0.00  0.00    +0.040 C 
ENDBRANCH  11  12
ENDBRANCH   1  11
TORSDOF 8
ENDMDL
MODEL       70
REMARK  Name = ZINC001209431539
REMARK                            x       y       z     vdW  Elec       q    Type
REMARK                         _______ _______ _______ _____ _____    ______ ____
ROOT
ATOM      1  C   LIG    1        4.145  -5.166   3.480  0.00  0.00    +0.250 C 
ENDROOT
BRANCH   1   2
ATOM      2  N   LIG    1        5.427  -5.883   3.464  0.00  0.00    -0.390 N 
ATOM      3  C   LIG    1        5.505  -6.720   2.259  0.00  0.00    +0.300 C 
ATOM      4  H   LIG    1        6.185  -5.217   3.460  0.00  0.00    +0.420 HD
BRANCH   2   5
ATOM      5  C   LIG    1        5.528  -6.733   4.658  0.00  0.00    +0.250 C 
BRANCH   5   6
ATOM      6  C   LIG    1        6.912  -7.383   4.705  0.00  0.00    +0.030 C 
BRANCH   6   7
ATOM      7  C   LIG    1        7.016  -8.268   5.949  0.00  0.00    +0.020 C 
ATOM      8  C   LIG    1        8.400  -8.919   5.997  0.00  0.00    +0.030 C 
ENDBRANCH   6   7
ENDBRANCH   5   6
ENDBRANCH   2   5
ENDBRANCH   1   2
BRANCH   1   9
ATOM      9  C   LIG    1        4.093  -4.188   2.304  0.00  0.00    +0.030 C 
BRANCH   9  10
ATOM     10  C   LIG    1        2.757  -3.441   2.321  0.00  0.00    +0.020 C 
BRANCH  10  11
ATOM     11  C   LIG    1        2.705  -2.464   1.145  0.00  0.00    +0.020 C 
BRANCH  11  12
ATOM     12  C   LIG    1        1.370  -1.717   1.161  0.00  0.00    +0.020 C 
BRANCH  12  13
ATOM     13  C   LIG    1        1.317  -0.740  -0.015  0.00  0.00    +0.050 C 
BRANCH  13  15
ATOM     14  C   LIG    1       -0.016   1.306   0.009  0.00  0.00    +0.010 C 
ATOM     15  C   LIG    1        0.002  -0.004   0.002  0.00  0.00    -0.060 C 
ENDBRANCH  13  15
ENDBRANCH  12  13
ENDBRANCH  11  12
ENDBRANCH  10  11
ENDBRANCH   9  10
ENDBRANCH   1   9
TORSDOF 10
ENDMDL
MODEL       71
REMARK  Name = ZINC001209431935
REMARK                            x       y       z     vdW  Elec       q    Type
REMARK                         _______ _______ _______ _____ _____    ______ ____
ROOT
ATOM      1  C   LIG    1        4.145  -5.166   3.480  0.00  0.00    +0.250 C 
ENDROOT
BRANCH   1   2
ATOM      2  N   LIG    1        5.427  -5.883   3.464  0.00  0.00    -0.390 N 
ATOM      3  C   LIG    1        5.505  -6.720   2.259  0.00  0.00    +0.310 C 
ATOM      4  H   LIG    1        6.185  -5.217   3.460  0.00  0.00    +0.420 HD
BRANCH   2   5
ATOM      5  C   LIG    1        5.528  -6.733   4.658  0.00  0.00    +0.250 C 
BRANCH   5   6
ATOM      6  C   LIG    1        6.912  -7.383   4.705  0.00  0.00    -0.030 C 
ATOM      7  C   LIG    1        6.974  -8.363   5.878  0.00  0.00    +0.070 C 
ATOM      8  C   LIG    1        7.978  -6.301   4.888  0.00  0.00    +0.030 C 
ENDBRANCH   5   6
ENDBRANCH   2   5
ENDBRANCH   1   2
BRANCH   1   9
ATOM      9  C   LIG    1        4.093  -4.188   2.304  0.00  0.00    +0.030 C 
BRANCH   9  10
ATOM     10  C   LIG    1        2.757  -3.441   2.321  0.00  0.00    +0.020 C 
BRANCH  10  11
ATOM     11  C   LIG    1        2.705  -2.464   1.145  0.00  0.00    +0.020 C 
BRANCH  11  12
ATOM     12  C   LIG    1        1.370  -1.717   1.161  0.00  0.00    +0.020 C 
BRANCH  12  13
ATOM     13  C   LIG    1        1.317  -0.740  -0.015  0.00  0.00    +0.050 C 
BRANCH  13  15
ATOM     14  C   LIG    1       -0.016   1.306   0.009  0.00  0.00    +0.010 C 
ATOM     15  C   LIG    1        0.002  -0.004   0.002  0.00  0.00    -0.060 C 
ENDBRANCH  13  15
ENDBRANCH  12  13
ENDBRANCH  11  12
ENDBRANCH  10  11
ENDBRANCH   9  10
ENDBRANCH   1   9
TORSDOF 9
ENDMDL
MODEL       72
REMARK  Name = ZINC001209431995
REMARK                            x       y       z     vdW  Elec       q    Type
REMARK                         _______ _______ _______ _____ _____    ______ ____
ROOT
ATOM      1  C   LIG    1       -3.962  -6.022  -2.569  0.00  0.00    +0.250 C 
ENDROOT
BRANCH   1   2
ATOM      2  N   LIG    1       -5.030  -6.822  -3.183  0.00  0.00    -0.380 N 
ATOM      3  H   LIG    1       -5.369  -7.498  -2.515  0.00  0.00    +0.420 HD
BRANCH   2   4
ATOM      4  C   LIG    1       -6.131  -5.939  -3.589  0.00  0.00    +0.160 C 
ATOM      5  C   LIG    1       -7.421  -6.753  -3.704  0.00  0.00    +0.080 C 
ATOM      6  C   LIG    1       -5.804  -5.307  -4.943  0.00  0.00    +0.090 C 
ENDBRANCH   2   4
BRANCH   2   7
ATOM      7  C   LIG    1       -4.502  -7.522  -4.362  0.00  0.00    +0.250 C 
ATOM      8  C   LIG    1       -5.559  -8.491  -4.895  0.00  0.00    +0.080 C 
ENDBRANCH   2   7
ENDBRANCH   1   2
BRANCH   1   9
ATOM      9  C   LIG    1       -4.465  -5.420  -1.256  0.00  0.00    +0.030 C 
BRANCH   9  10
ATOM     10  C   LIG    1       -3.314  -4.702  -0.549  0.00  0.00    +0.020 C 
BRANCH  10  11
ATOM     11  C   LIG    1       -3.817  -4.100   0.764  0.00  0.00    +0.020 C 
BRANCH  11  12
ATOM     12  C   LIG    1       -2.666  -3.382   1.471  0.00  0.00    +0.020 C 
BRANCH  12  13
ATOM     13  C   LIG    1       -3.170  -2.780   2.784  0.00  0.00    +0.050 C 
BRANCH  13  15
ATOM     14  C   LIG    1       -2.161  -0.815   3.825  0.00  0.00    +0.010 C 
ATOM     15  C   LIG    1       -2.035  -2.073   3.480  0.00  0.00    -0.060 C 
ENDBRANCH  13  15
ENDBRANCH  12  13
ENDBRANCH  11  12
ENDBRANCH  10  11
ENDBRANCH   9  10
ENDBRANCH   1   9
TORSDOF 9
ENDMDL
MODEL       73
REMARK  Name = ZINC001209431435
REMARK                            x       y       z     vdW  Elec       q    Type
REMARK                         _______ _______ _______ _____ _____    ______ ____
ROOT
ATOM      1  C   LIG    1        4.145  -5.166   3.480  0.00  0.00    +0.250 C 
ENDROOT
BRANCH   1   2
ATOM      2  N   LIG    1        5.427  -5.883   3.464  0.00  0.00    -0.390 N 
ATOM      3  C   LIG    1        5.497  -6.751   2.269  0.00  0.00    +0.250 C 
ATOM      4  C   LIG    1        6.253  -8.017   2.743  0.00  0.00    +0.080 C 
ATOM      5  C   LIG    1        5.707  -8.186   4.185  0.00  0.00    +0.070 C 
ATOM      6  C   LIG    1        5.536  -6.732   4.664  0.00  0.00    +0.160 C 
ATOM      7  C   LIG    1        4.267  -6.609   5.510  0.00  0.00    +0.080 C 
ATOM      8  H   LIG    1        6.187  -5.220   3.447  0.00  0.00    +0.430 HD
ENDBRANCH   1   2
BRANCH   1   9
ATOM      9  C   LIG    1        4.093  -4.188   2.304  0.00  0.00    +0.020 C 
BRANCH   9  10
ATOM     10  C   LIG    1        2.757  -3.441   2.321  0.00  0.00    +0.020 C 
BRANCH  10  11
ATOM     11  C   LIG    1        2.705  -2.464   1.145  0.00  0.00    +0.020 C 
BRANCH  11  12
ATOM     12  C   LIG    1        1.370  -1.717   1.161  0.00  0.00    +0.020 C 
BRANCH  12  13
ATOM     13  C   LIG    1        1.317  -0.740  -0.015  0.00  0.00    +0.050 C 
BRANCH  13  15
ATOM     14  C   LIG    1       -0.016   1.306   0.009  0.00  0.00    +0.010 C 
ATOM     15  C   LIG    1        0.002  -0.004   0.002  0.00  0.00    -0.060 C 
ENDBRANCH  13  15
ENDBRANCH  12  13
ENDBRANCH  11  12
ENDBRANCH  10  11
ENDBRANCH   9  10
ENDBRANCH   1   9
TORSDOF 7
ENDMDL
MODEL       74
REMARK  Name = ZINC001209429214
REMARK                            x       y       z     vdW  Elec       q    Type
REMARK                         _______ _______ _______ _____ _____    ______ ____
ROOT
ATOM      1  N   LIG    1        4.698  -6.286   2.603  0.00  0.00    -0.380 N 
ATOM      2  C   LIG    1        3.994  -5.422   3.559  0.00  0.00    +0.310 C 
ATOM      3  H   LIG    1        4.151  -7.117   2.434  0.00  0.00    +0.420 HD
ENDROOT
BRANCH   1   4
ATOM      4  C   LIG    1        4.893  -5.562   1.340  0.00  0.00    +0.240 C 
BRANCH   4   5
ATOM      5  C   LIG    1        3.544  -5.386   0.640  0.00  0.00    +0.020 C 
BRANCH   5   6
ATOM      6  C   LIG    1        3.746  -4.632  -0.676  0.00  0.00    +0.020 C 
BRANCH   6   7
ATOM      7  C   LIG    1        2.397  -4.456  -1.375  0.00  0.00    +0.020 C 
BRANCH   7   8
ATOM      8  C   LIG    1        2.599  -3.701  -2.691  0.00  0.00    +0.050 C 
BRANCH   8  10
ATOM      9  C   LIG    1        0.863  -2.332  -3.725  0.00  0.00    +0.020 C 
ATOM     10  C   LIG    1        1.271  -3.528  -3.380  0.00  0.00    -0.060 C 
ENDBRANCH   8  10
ENDBRANCH   7   8
ENDBRANCH   6   7
ENDBRANCH   5   6
ENDBRANCH   4   5
ENDBRANCH   1   4
BRANCH   1  11
ATOM     11  C   LIG    1        6.005  -6.665   3.156  0.00  0.00    +0.170 C 
BRANCH  11  12
ATOM     12  C   LIG    1        5.803  -7.609   4.343  0.00  0.00    +0.050 C 
ATOM     13  C   LIG    1        5.082  -8.874   3.872  0.00  0.00    +0.040 C 
ENDBRANCH  11  12
BRANCH  11  14
ATOM     14  C   LIG    1        6.745  -5.410   3.624  0.00  0.00    +0.050 C 
ATOM     15  C   LIG    1        7.230  -4.621   2.406  0.00  0.00    +0.040 C 
ENDBRANCH  11  14
ENDBRANCH   1  11
TORSDOF 9
ENDMDL
MODEL       75
REMARK  Name = ZINC001209438444
REMARK                            x       y       z     vdW  Elec       q    Type
REMARK                         _______ _______ _______ _____ _____    ______ ____
ROOT
ATOM      1  C   LIG    1        4.145  -5.166   3.480  0.00  0.00    +0.030 C 
ENDROOT
BRANCH   1   2
ATOM      2  C   LIG    1        4.093  -4.188   2.304  0.00  0.00    +0.020 C 
BRANCH   2   3
ATOM      3  C   LIG    1        2.757  -3.441   2.321  0.00  0.00    +0.020 C 
BRANCH   3   4
ATOM      4  C   LIG    1        2.705  -2.464   1.145  0.00  0.00    +0.000 C 
BRANCH   4   5
ATOM      5  C   LIG    1        1.370  -1.717   1.161  0.00  0.00    +0.000 C 
BRANCH   5   6
ATOM      6  C   LIG    1        1.317  -0.740  -0.015  0.00  0.00    +0.040 C 
BRANCH   6   8
ATOM      7  C   LIG    1       -0.016   1.306   0.009  0.00  0.00    +0.010 C 
ATOM      8  C   LIG    1        0.002  -0.004   0.002  0.00  0.00    -0.050 C 
ENDBRANCH   6   8
ENDBRANCH   5   6
ENDBRANCH   4   5
ENDBRANCH   3   4
ENDBRANCH   2   3
ENDBRANCH   1   2
BRANCH   1   9
ATOM      9  C   LIG    1        5.480  -5.912   3.463  0.00  0.00    +0.250 C 
BRANCH   9  10
ATOM     10  N   LIG    1        5.530  -6.851   4.592  0.00  0.00    -0.390 N 
ATOM     11  C   LIG    1        5.521  -6.099   5.854  0.00  0.00    +0.300 C 
ATOM     12  H   LIG    1        4.728  -7.461   4.558  0.00  0.00    +0.420 HD
BRANCH  10  13
ATOM     13  C   LIG    1        6.759  -7.652   4.508  0.00  0.00    +0.250 C 
BRANCH  13  14
ATOM     14  C   LIG    1        6.752  -8.713   5.611  0.00  0.00    +0.030 C 
ATOM     15  C   LIG    1        8.031  -9.548   5.524  0.00  0.00    +0.060 C 
ENDBRANCH  13  14
ENDBRANCH  10  13
ENDBRANCH   9  10
ENDBRANCH   1   9
TORSDOF 10
ENDMDL
MODEL       76
REMARK  Name = ZINC001209439125
REMARK                            x       y       z     vdW  Elec       q    Type
REMARK                         _______ _______ _______ _____ _____    ______ ____
ROOT
ATOM      1  C   LIG    1        4.145  -5.166   3.480  0.00  0.00    +0.030 C 
ENDROOT
BRANCH   1   2
ATOM      2  C   LIG    1        4.093  -4.188   2.304  0.00  0.00    +0.020 C 
BRANCH   2   3
ATOM      3  C   LIG    1        2.757  -3.441   2.321  0.00  0.00    +0.020 C 
BRANCH   3   4
ATOM      4  C   LIG    1        2.705  -2.464   1.145  0.00  0.00    +0.000 C 
BRANCH   4   5
ATOM      5  C   LIG    1        1.370  -1.717   1.161  0.00  0.00    +0.000 C 
BRANCH   5   6
ATOM      6  C   LIG    1        1.317  -0.740  -0.015  0.00  0.00    +0.040 C 
BRANCH   6   8
ATOM      7  C   LIG    1       -0.016   1.306   0.009  0.00  0.00    +0.010 C 
ATOM      8  C   LIG    1        0.002  -0.004   0.002  0.00  0.00    -0.050 C 
ENDBRANCH   6   8
ENDBRANCH   5   6
ENDBRANCH   4   5
ENDBRANCH   3   4
ENDBRANCH   2   3
ENDBRANCH   1   2
BRANCH   1   9
ATOM      9  C   LIG    1        5.480  -5.912   3.463  0.00  0.00    +0.250 C 
BRANCH   9  10
ATOM     10  N   LIG    1        5.530  -6.851   4.592  0.00  0.00    -0.380 N 
ATOM     11  C   LIG    1        5.521  -6.099   5.854  0.00  0.00    +0.310 C 
ATOM     12  H   LIG    1        4.728  -7.461   4.558  0.00  0.00    +0.430 HD
BRANCH  10  13
ATOM     13  C   LIG    1        6.759  -7.652   4.508  0.00  0.00    +0.290 C 
BRANCH  13  14
ATOM     14  C   LIG    1        6.752  -8.697   5.594  0.00  0.00    -0.110 C 
ATOM     15  C   LIG    1        6.901  -9.962   5.287  0.00  0.00    +0.130 C 
ENDBRANCH  13  14
ENDBRANCH  10  13
ENDBRANCH   9  10
ENDBRANCH   1   9
TORSDOF 10
ENDMDL
MODEL       77
REMARK  Name = ZINC001209438678
REMARK                            x       y       z     vdW  Elec       q    Type
REMARK                         _______ _______ _______ _____ _____    ______ ____
ROOT
ATOM      1  C   LIG    1        4.145  -5.166   3.480  0.00  0.00    +0.010 C 
ENDROOT
BRANCH   1   2
ATOM      2  C   LIG    1        4.093  -4.188   2.304  0.00  0.00    +0.020 C 
BRANCH   2   3
ATOM      3  C   LIG    1        2.757  -3.441   2.321  0.00  0.00    +0.020 C 
BRANCH   3   4
ATOM      4  C   LIG    1        2.705  -2.464   1.145  0.00  0.00    +0.000 C 
BRANCH   4   5
ATOM      5  C   LIG    1        1.370  -1.717   1.161  0.00  0.00    +0.000 C 
BRANCH   5   6
ATOM      6  C   LIG    1        1.317  -0.740  -0.015  0.00  0.00    +0.040 C 
BRANCH   6   8
ATOM      7  C   LIG    1       -0.016   1.306   0.009  0.00  0.00    +0.010 C 
ATOM      8  C   LIG    1        0.002  -0.004   0.002  0.00  0.00    -0.050 C 
ENDBRANCH   6   8
ENDBRANCH   5   6
ENDBRANCH   4   5
ENDBRANCH   3   4
ENDBRANCH   2   3
ENDBRANCH   1   2
BRANCH   1   9
ATOM      9  C   LIG    1        5.480  -5.912   3.463  0.00  0.00    +0.250 C 
BRANCH   9  10
ATOM     10  N   LIG    1        5.530  -6.851   4.592  0.00  0.00    -0.410 N 
ATOM     11  C   LIG    1        6.002  -6.235   5.846  0.00  0.00    +0.290 C 
ATOM     12  C   LIG    1        6.759  -7.539   6.137  0.00  0.00    +0.090 C 
ATOM     13  C   LIG    1        6.747  -7.685   4.608  0.00  0.00    +0.190 C 
ATOM     14  C   LIG    1        6.511  -9.121   4.135  0.00  0.00    +0.090 C 
ATOM     15  H   LIG    1        4.679  -7.381   4.701  0.00  0.00    +0.430 HD
ENDBRANCH   9  10
ENDBRANCH   1   9
TORSDOF 8
ENDMDL
MODEL       78
REMARK  Name = ZINC001209438013
REMARK                            x       y       z     vdW  Elec       q    Type
REMARK                         _______ _______ _______ _____ _____    ______ ____
ROOT
ATOM      1  C   LIG    1       -4.000  -5.238  -3.533  0.00  0.00    +0.030 C 
ENDROOT
BRANCH   1   2
ATOM      2  C   LIG    1       -3.974  -4.272  -2.346  0.00  0.00    +0.020 C 
BRANCH   2   3
ATOM      3  C   LIG    1       -2.659  -3.489  -2.355  0.00  0.00    +0.020 C 
BRANCH   3   4
ATOM      4  C   LIG    1       -2.633  -2.524  -1.168  0.00  0.00    +0.000 C 
BRANCH   4   5
ATOM      5  C   LIG    1       -1.319  -1.741  -1.176  0.00  0.00    +0.000 C 
BRANCH   5   6
ATOM      6  C   LIG    1       -1.293  -0.775   0.010  0.00  0.00    +0.040 C 
BRANCH   6   8
ATOM      7  C   LIG    1       -0.016   1.306   0.009  0.00  0.00    +0.010 C 
ATOM      8  C   LIG    1        0.002  -0.004   0.002  0.00  0.00    -0.050 C 
ENDBRANCH   6   8
ENDBRANCH   5   6
ENDBRANCH   4   5
ENDBRANCH   3   4
ENDBRANCH   2   3
ENDBRANCH   1   2
BRANCH   1   9
ATOM      9  C   LIG    1       -5.314  -6.021  -3.525  0.00  0.00    +0.250 C 
BRANCH   9  10
ATOM     10  N   LIG    1       -5.339  -6.947  -4.664  0.00  0.00    -0.360 N 
ATOM     11  C   LIG    1       -5.351  -6.182  -5.918  0.00  0.00    +0.320 C 
ATOM     12  H   LIG    1       -4.520  -7.536  -4.637  0.00  0.00    +0.420 HD
BRANCH  10  13
ATOM     13  C   LIG    1       -6.545  -7.783  -4.589  0.00  0.00    +0.100 C 
ATOM     14  C   LIG    1       -6.363  -9.298  -4.694  0.00  0.00    +0.100 C 
ATOM     15  C   LIG    1       -6.720  -8.662  -3.349  0.00  0.00    +0.090 C 
ENDBRANCH  10  13
ENDBRANCH   9  10
ENDBRANCH   1   9
TORSDOF 9
ENDMDL
MODEL       79
REMARK  Name = ZINC001209442267
REMARK                            x       y       z     vdW  Elec       q    Type
REMARK                         _______ _______ _______ _____ _____    ______ ____
ROOT
ATOM      1  C   LIG    1       -4.000  -5.238  -3.533  0.00  0.00    +0.020 C 
ENDROOT
BRANCH   1   2
ATOM      2  C   LIG    1       -3.974  -4.272  -2.346  0.00  0.00    +0.020 C 
BRANCH   2   3
ATOM      3  C   LIG    1       -2.659  -3.489  -2.355  0.00  0.00    +0.000 C 
BRANCH   3   4
ATOM      4  C   LIG    1       -2.633  -2.524  -1.168  0.00  0.00    +0.000 C 
BRANCH   4   5
ATOM      5  C   LIG    1       -1.319  -1.741  -1.176  0.00  0.00    +0.000 C 
BRANCH   5   6
ATOM      6  C   LIG    1       -1.293  -0.775   0.010  0.00  0.00    +0.040 C 
BRANCH   6   8
ATOM      7  C   LIG    1       -0.016   1.306   0.009  0.00  0.00    +0.010 C 
ATOM      8  C   LIG    1        0.002  -0.004   0.002  0.00  0.00    -0.050 C 
ENDBRANCH   6   8
ENDBRANCH   5   6
ENDBRANCH   4   5
ENDBRANCH   3   4
ENDBRANCH   2   3
ENDBRANCH   1   2
BRANCH   1   9
ATOM      9  C   LIG    1       -5.314  -6.021  -3.525  0.00  0.00    +0.030 C 
BRANCH   9  10
ATOM     10  C   LIG    1       -5.340  -6.986  -4.711  0.00  0.00    +0.250 C 
BRANCH  10  11
ATOM     11  N   LIG    1       -6.602  -7.738  -4.703  0.00  0.00    -0.390 N 
ATOM     12  C   LIG    1       -6.657  -8.590  -3.508  0.00  0.00    +0.310 C 
ATOM     13  H   LIG    1       -7.378  -7.093  -4.692  0.00  0.00    +0.420 HD
BRANCH  11  14
ATOM     14  C   LIG    1       -6.680  -8.577  -5.907  0.00  0.00    +0.250 C 
ATOM     15  C   LIG    1       -8.046  -9.264  -5.962  0.00  0.00    +0.080 C 
ENDBRANCH  11  14
ENDBRANCH  10  11
ENDBRANCH   9  10
ENDBRANCH   1   9
TORSDOF 10
ENDMDL
MODEL       80
REMARK  Name = ZINC001209438679
REMARK                            x       y       z     vdW  Elec       q    Type
REMARK                         _______ _______ _______ _____ _____    ______ ____
ROOT
ATOM      1  C   LIG    1        4.145  -5.166   3.480  0.00  0.00    +0.020 C 
ENDROOT
BRANCH   1   2
ATOM      2  C   LIG    1        4.093  -4.188   2.304  0.00  0.00    +0.020 C 
BRANCH   2   3
ATOM      3  C   LIG    1        2.757  -3.441   2.321  0.00  0.00    +0.020 C 
BRANCH   3   4
ATOM      4  C   LIG    1        2.705  -2.464   1.145  0.00  0.00    +0.000 C 
BRANCH   4   5
ATOM      5  C   LIG    1        1.370  -1.717   1.161  0.00  0.00    +0.000 C 
BRANCH   5   6
ATOM      6  C   LIG    1        1.317  -0.740  -0.015  0.00  0.00    +0.040 C 
BRANCH   6   8
ATOM      7  C   LIG    1       -0.016   1.306   0.009  0.00  0.00    +0.010 C 
ATOM      8  C   LIG    1        0.002  -0.004   0.002  0.00  0.00    -0.050 C 
ENDBRANCH   6   8
ENDBRANCH   5   6
ENDBRANCH   4   5
ENDBRANCH   3   4
ENDBRANCH   2   3
ENDBRANCH   1   2
BRANCH   1   9
ATOM      9  C   LIG    1        5.480  -5.912   3.463  0.00  0.00    +0.250 C 
BRANCH   9  10
ATOM     10  N   LIG    1        5.530  -6.851   4.592  0.00  0.00    -0.410 N 
ATOM     11  C   LIG    1        6.002  -6.235   5.846  0.00  0.00    +0.290 C 
ATOM     12  C   LIG    1        6.759  -7.539   6.137  0.00  0.00    +0.090 C 
ATOM     13  C   LIG    1        6.747  -7.685   4.608  0.00  0.00    +0.170 C 
ATOM     14  C   LIG    1        7.947  -7.027   3.923  0.00  0.00    +0.110 C 
ATOM     15  H   LIG    1        4.679  -7.381   4.701  0.00  0.00    +0.440 HD
ENDBRANCH   9  10
ENDBRANCH   1   9
TORSDOF 8
ENDMDL
MODEL       81
REMARK  Name = ZINC001209435798
REMARK                            x       y       z     vdW  Elec       q    Type
REMARK                         _______ _______ _______ _____ _____    ______ ____
ROOT
ATOM      1  C   LIG    1        4.145  -5.166   3.480  0.00  0.00    +0.240 C 
ENDROOT
BRANCH   1   2
ATOM      2  N   LIG    1        5.427  -5.883   3.464  0.00  0.00    -0.380 N 
ATOM      3  C   LIG    1        5.505  -6.720   2.259  0.00  0.00    +0.320 C 
ATOM      4  H   LIG    1        6.185  -5.217   3.460  0.00  0.00    +0.420 HD
BRANCH   2   5
ATOM      5  C   LIG    1        5.528  -6.733   4.658  0.00  0.00    +0.050 C 
ATOM      6  C   LIG    1        5.447  -5.861   5.912  0.00  0.00    +0.090 C 
ATOM      7  C   LIG    1        6.863  -7.479   4.641  0.00  0.00    +0.080 C 
ATOM      8  C   LIG    1        4.378  -7.743   4.663  0.00  0.00    +0.080 C 
ENDBRANCH   2   5
ENDBRANCH   1   2
BRANCH   1   9
ATOM      9  C   LIG    1        4.093  -4.188   2.304  0.00  0.00    +0.030 C 
BRANCH   9  10
ATOM     10  C   LIG    1        2.757  -3.441   2.321  0.00  0.00    +0.020 C 
BRANCH  10  11
ATOM     11  C   LIG    1        2.705  -2.464   1.145  0.00  0.00    +0.020 C 
BRANCH  11  12
ATOM     12  C   LIG    1        1.370  -1.717   1.161  0.00  0.00    +0.020 C 
BRANCH  12  13
ATOM     13  C   LIG    1        1.317  -0.740  -0.015  0.00  0.00    +0.050 C 
BRANCH  13  15
ATOM     14  C   LIG    1       -0.016   1.306   0.009  0.00  0.00    +0.010 C 
ATOM     15  C   LIG    1        0.002  -0.004   0.002  0.00  0.00    -0.060 C 
ENDBRANCH  13  15
ENDBRANCH  12  13
ENDBRANCH  11  12
ENDBRANCH  10  11
ENDBRANCH   9  10
ENDBRANCH   1   9
TORSDOF 8
ENDMDL
MODEL       82
REMARK  Name = ZINC001209438663
REMARK                            x       y       z     vdW  Elec       q    Type
REMARK                         _______ _______ _______ _____ _____    ______ ____
ROOT
ATOM      1  C   LIG    1       -4.000  -5.238  -3.533  0.00  0.00    +0.030 C 
ENDROOT
BRANCH   1   2
ATOM      2  C   LIG    1       -3.974  -4.272  -2.346  0.00  0.00    +0.020 C 
BRANCH   2   3
ATOM      3  C   LIG    1       -2.659  -3.489  -2.355  0.00  0.00    +0.020 C 
BRANCH   3   4
ATOM      4  C   LIG    1       -2.633  -2.524  -1.168  0.00  0.00    +0.000 C 
BRANCH   4   5
ATOM      5  C   LIG    1       -1.319  -1.741  -1.176  0.00  0.00    +0.000 C 
BRANCH   5   6
ATOM      6  C   LIG    1       -1.293  -0.775   0.010  0.00  0.00    +0.040 C 
BRANCH   6   8
ATOM      7  C   LIG    1       -0.016   1.306   0.009  0.00  0.00    +0.010 C 
ATOM      8  C   LIG    1        0.002  -0.004   0.002  0.00  0.00    -0.050 C 
ENDBRANCH   6   8
ENDBRANCH   5   6
ENDBRANCH   4   5
ENDBRANCH   3   4
ENDBRANCH   2   3
ENDBRANCH   1   2
BRANCH   1   9
ATOM      9  C   LIG    1       -5.314  -6.021  -3.525  0.00  0.00    +0.240 C 
BRANCH   9  10
ATOM     10  N   LIG    1       -5.339  -6.947  -4.664  0.00  0.00    -0.380 N 
ATOM     11  C   LIG    1       -5.351  -6.182  -5.918  0.00  0.00    +0.320 C 
ATOM     12  H   LIG    1       -4.520  -7.536  -4.637  0.00  0.00    +0.420 HD
BRANCH  10  13
ATOM     13  C   LIG    1       -6.545  -7.783  -4.589  0.00  0.00    +0.160 C 
ATOM     14  C   LIG    1       -6.533  -8.580  -3.283  0.00  0.00    +0.080 C 
ATOM     15  C   LIG    1       -6.571  -8.748  -5.776  0.00  0.00    +0.090 C 
ENDBRANCH  10  13
ENDBRANCH   9  10
ENDBRANCH   1   9
TORSDOF 9
ENDMDL
MODEL       83
REMARK  Name = ZINC001174643033
REMARK                            x       y       z     vdW  Elec       q    Type
REMARK                         _______ _______ _______ _____ _____    ______ ____
ROOT
ATOM      1  N   LIG    1        0.820  -1.809   1.215  0.00  0.00    -0.380 N 
ATOM      2  H   LIG    1        0.659  -1.634   2.196  0.00  0.00    +0.420 HD
ENDROOT
BRANCH   1   3
ATOM      3  C   LIG    1       -0.170  -2.776   0.722  0.00  0.00    +0.060 C 
ATOM      4  C   LIG    1       -1.487  -2.590   1.479  0.00  0.00    +0.080 C 
ATOM      5  C   LIG    1        0.350  -4.197   0.946  0.00  0.00    +0.080 C 
ATOM      6  C   LIG    1       -0.405  -2.549  -0.772  0.00  0.00    +0.090 C 
ENDBRANCH   1   3
BRANCH   1   7
ATOM      7  C   LIG    1        0.691  -0.552   0.466  0.00  0.00    +0.280 C 
BRANCH   7   9
ATOM      8  C   LIG    1       -0.669   1.255   1.387  0.00  0.00    +0.130 C 
ATOM      9  C   LIG    1       -0.633   0.091   0.786  0.00  0.00    -0.100 C 
ENDBRANCH   7   9
ENDBRANCH   1   7
BRANCH   1  10
ATOM     10  C   LIG    1        2.171  -2.354   1.030  0.00  0.00    +0.250 C 
BRANCH  10  11
ATOM     11  C   LIG    1        3.195  -1.398   1.646  0.00  0.00    -0.020 C 
BRANCH  11  12
ATOM     12  C   LIG    1        4.608  -1.897   1.337  0.00  0.00    +0.030 C 
ATOM     13  C   LIG    1        5.630  -0.872   1.833  0.00  0.00    +0.030 C 
ENDBRANCH  11  12
BRANCH  11  14
ATOM     14  C   LIG    1        2.994  -1.342   3.162  0.00  0.00    +0.010 C 
ATOM     15  C   LIG    1        3.297  -2.714   3.767  0.00  0.00    +0.020 C 
ENDBRANCH  11  14
ENDBRANCH  10  11
ENDBRANCH   1  10
TORSDOF 7
ENDMDL
MODEL       84
REMARK  Name = ZINC001174779635
REMARK                            x       y       z     vdW  Elec       q    Type
REMARK                         _______ _______ _______ _____ _____    ______ ____
ROOT
ATOM      1  N   LIG    1        1.409  -0.912   1.555  0.00  0.00    -0.370 N 
ATOM      2  C   LIG    1        2.636  -1.713   1.468  0.00  0.00    +0.160 C 
ATOM      3  C   LIG    1        3.056  -2.164   2.869  0.00  0.00    +0.060 C 
ATOM      4  C   LIG    1        3.308  -0.932   3.742  0.00  0.00    +0.040 C 
ATOM      5  C   LIG    1        2.045  -0.067   3.765  0.00  0.00    +0.060 C 
ATOM      6  C   LIG    1        1.665   0.307   2.331  0.00  0.00    +0.160 C 
ATOM      7  C   LIG    1        0.403   1.171   2.347  0.00  0.00    +0.090 C 
ATOM      8  H   LIG    1        0.688  -1.453   2.009  0.00  0.00    +0.420 HD
ENDROOT
BRANCH   2   9
ATOM      9  C   LIG    1        2.383  -2.942   0.593  0.00  0.00    +0.030 C 
ATOM     10  C   LIG    1        3.696  -3.698   0.383  0.00  0.00    +0.060 C 
ENDBRANCH   2   9
BRANCH   1  11
ATOM     11  C   LIG    1        0.968  -0.547   0.202  0.00  0.00    +0.300 C 
BRANCH  11  13
ATOM     12  C   LIG    1        2.922  -0.348  -1.247  0.00  0.00    +0.110 C 
ATOM     13  C   LIG    1        2.048   0.253  -0.479  0.00  0.00    -0.180 C 
BRANCH  13  14
ATOM     14  C   LIG    1        2.121   1.745  -0.277  0.00  0.00    +0.050 C 
ATOM     15  C   LIG    1        1.185   2.440  -1.267  0.00  0.00    +0.040 C 
ENDBRANCH  13  14
ENDBRANCH  11  13
ENDBRANCH   1  11
TORSDOF 4
ENDMDL
MODEL       85
REMARK  Name = ZINC001176798508
REMARK                            x       y       z     vdW  Elec       q    Type
REMARK                         _______ _______ _______ _____ _____    ______ ____
ROOT
ATOM      1  N   LIG    1        2.558  -3.514   2.535  0.00  0.00    -0.380 N 
ATOM      2  H   LIG    1        1.901  -4.279   2.538  0.00  0.00    +0.420 HD
ENDROOT
BRANCH   1   3
ATOM      3  C   LIG    1        3.928  -4.044   2.516  0.00  0.00    +0.160 C 
ATOM      4  C   LIG    1        4.923  -2.891   2.667  0.00  0.00    +0.080 C 
BRANCH   3   5
ATOM      5  C   LIG    1        4.109  -5.029   3.672  0.00  0.00    -0.020 C 
ATOM      6  C   LIG    1        3.134  -6.197   3.506  0.00  0.00    +0.040 C 
BRANCH   5   7
ATOM      7  C   LIG    1        5.545  -5.559   3.670  0.00  0.00    +0.030 C 
ATOM      8  C   LIG    1        5.762  -6.447   4.897  0.00  0.00    +0.030 C 
ENDBRANCH   5   7
ENDBRANCH   3   5
ENDBRANCH   1   3
BRANCH   1   9
ATOM      9  C   LIG    1        2.365  -2.699   3.742  0.00  0.00    +0.240 C 
ATOM     10  C   LIG    1        0.896  -2.283   3.848  0.00  0.00    +0.080 C 
ENDBRANCH   1   9
BRANCH   1  11
ATOM     11  C   LIG    1        2.337  -2.684   1.343  0.00  0.00    +0.240 C 
BRANCH  11  12
ATOM     12  C   LIG    1        2.426  -3.557   0.090  0.00  0.00    +0.040 C 
BRANCH  12  13
ATOM     13  C   LIG    1        2.063  -2.723  -1.140  0.00  0.00    +0.070 C 
BRANCH  13  15
ATOM     14  C   LIG    1        1.119  -3.686  -3.175  0.00  0.00    +0.030 C 
ATOM     15  C   LIG    1        2.151  -3.583  -2.374  0.00  0.00    -0.070 C 
ENDBRANCH  13  15
ENDBRANCH  12  13
ENDBRANCH  11  12
ENDBRANCH   1  11
TORSDOF 8
ENDMDL
MODEL       86
REMARK  Name = ZINC001176798505
REMARK                            x       y       z     vdW  Elec       q    Type
REMARK                         _______ _______ _______ _____ _____    ______ ____
ROOT
ATOM      1  N   LIG    1        2.793  -3.316   2.263  0.00  0.00    -0.380 N 
ATOM      2  H   LIG    1        2.070  -4.015   2.345  0.00  0.00    +0.420 HD
ENDROOT
BRANCH   1   3
ATOM      3  C   LIG    1        4.076  -3.971   1.975  0.00  0.00    +0.160 C 
ATOM      4  C   LIG    1        5.143  -2.907   1.707  0.00  0.00    +0.080 C 
BRANCH   3   5
ATOM      5  C   LIG    1        3.927  -4.864   0.742  0.00  0.00    -0.020 C 
ATOM      6  C   LIG    1        2.781  -5.853   0.964  0.00  0.00    +0.030 C 
BRANCH   5   7
ATOM      7  C   LIG    1        5.228  -5.636   0.510  0.00  0.00    +0.030 C 
ATOM      8  C   LIG    1        5.123  -6.434  -0.791  0.00  0.00    +0.030 C 
ENDBRANCH   5   7
ENDBRANCH   3   5
ENDBRANCH   1   3
BRANCH   1   9
ATOM      9  C   LIG    1        2.897  -2.569   3.523  0.00  0.00    +0.240 C 
ATOM     10  C   LIG    1        3.118  -3.546   4.679  0.00  0.00    +0.080 C 
ENDBRANCH   1   9
BRANCH   1  11
ATOM     11  C   LIG    1        2.459  -2.392   1.171  0.00  0.00    +0.240 C 
BRANCH  11  12
ATOM     12  C   LIG    1        1.055  -1.825   1.395  0.00  0.00    +0.040 C 
BRANCH  12  13
ATOM     13  C   LIG    1        0.743  -0.794   0.308  0.00  0.00    +0.070 C 
BRANCH  13  15
ATOM     14  C   LIG    1       -0.815   1.058   0.634  0.00  0.00    +0.030 C 
ATOM     15  C   LIG    1       -0.640  -0.236   0.528  0.00  0.00    -0.070 C 
ENDBRANCH  13  15
ENDBRANCH  12  13
ENDBRANCH  11  12
ENDBRANCH   1  11
TORSDOF 8
ENDMDL
MODEL       87
REMARK  Name = ZINC001176798506
REMARK                            x       y       z     vdW  Elec       q    Type
REMARK                         _______ _______ _______ _____ _____    ______ ____
ROOT
ATOM      1  N   LIG    1        2.852  -3.357   2.374  0.00  0.00    -0.380 N 
ATOM      2  H   LIG    1        2.193  -4.117   2.454  0.00  0.00    +0.420 HD
ENDROOT
BRANCH   1   3
ATOM      3  C   LIG    1        4.217  -3.897   2.310  0.00  0.00    +0.160 C 
ATOM      4  C   LIG    1        4.510  -4.694   3.583  0.00  0.00    +0.080 C 
BRANCH   3   5
ATOM      5  C   LIG    1        4.346  -4.814   1.092  0.00  0.00    -0.020 C 
ATOM      6  C   LIG    1        3.348  -5.966   1.213  0.00  0.00    +0.050 C 
BRANCH   5   7
ATOM      7  C   LIG    1        5.768  -5.376   1.026  0.00  0.00    +0.030 C 
ATOM      8  C   LIG    1        5.934  -6.192  -0.258  0.00  0.00    +0.030 C 
ENDBRANCH   5   7
ENDBRANCH   3   5
ENDBRANCH   1   3
BRANCH   1   9
ATOM      9  C   LIG    1        2.728  -2.477   3.543  0.00  0.00    +0.240 C 
ATOM     10  C   LIG    1        3.800  -1.387   3.478  0.00  0.00    +0.080 C 
ENDBRANCH   1   9
BRANCH   1  11
ATOM     11  C   LIG    1        2.570  -2.592   1.153  0.00  0.00    +0.240 C 
BRANCH  11  12
ATOM     12  C   LIG    1        1.114  -2.123   1.169  0.00  0.00    +0.040 C 
BRANCH  12  13
ATOM     13  C   LIG    1        0.780  -1.448  -0.163  0.00  0.00    +0.070 C 
BRANCH  13  15
ATOM     14  C   LIG    1       -0.942   0.267  -0.396  0.00  0.00    +0.030 C 
ATOM     15  C   LIG    1       -0.654  -0.987  -0.147  0.00  0.00    -0.070 C 
ENDBRANCH  13  15
ENDBRANCH  12  13
ENDBRANCH  11  12
ENDBRANCH   1  11
TORSDOF 8
ENDMDL
MODEL       88
REMARK  Name = ZINC001176798507
REMARK                            x       y       z     vdW  Elec       q    Type
REMARK                         _______ _______ _______ _____ _____    ______ ____
ROOT
ATOM      1  N   LIG    1        2.716  -3.526   2.227  0.00  0.00    -0.380 N 
ATOM      2  H   LIG    1        2.102  -4.325   2.184  0.00  0.00    +0.420 HD
ENDROOT
BRANCH   1   3
ATOM      3  C   LIG    1        4.108  -3.983   2.325  0.00  0.00    +0.160 C 
ATOM      4  C   LIG    1        4.426  -4.907   1.147  0.00  0.00    +0.080 C 
BRANCH   3   5
ATOM      5  C   LIG    1        4.303  -4.745   3.638  0.00  0.00    -0.010 C 
ATOM      6  C   LIG    1        3.351  -5.941   3.680  0.00  0.00    +0.050 C 
BRANCH   5   7
ATOM      7  C   LIG    1        5.748  -5.240   3.730  0.00  0.00    +0.030 C 
ATOM      8  C   LIG    1        5.978  -5.892   5.095  0.00  0.00    +0.030 C 
ENDBRANCH   5   7
ENDBRANCH   3   5
ENDBRANCH   1   3
BRANCH   1   9
ATOM      9  C   LIG    1        2.382  -2.715   3.405  0.00  0.00    +0.240 C 
ATOM     10  C   LIG    1        3.267  -1.467   3.433  0.00  0.00    +0.070 C 
ENDBRANCH   1   9
BRANCH   1  11
ATOM     11  C   LIG    1        2.551  -2.716   1.012  0.00  0.00    +0.240 C 
BRANCH  11  12
ATOM     12  C   LIG    1        1.074  -2.357   0.835  0.00  0.00    +0.040 C 
BRANCH  12  13
ATOM     13  C   LIG    1        0.916  -1.431  -0.373  0.00  0.00    +0.070 C 
BRANCH  13  15
ATOM     14  C   LIG    1       -0.907   0.179  -0.590  0.00  0.00    +0.030 C 
ATOM     15  C   LIG    1       -0.539  -1.078  -0.547  0.00  0.00    -0.070 C 
ENDBRANCH  13  15
ENDBRANCH  12  13
ENDBRANCH  11  12
ENDBRANCH   1  11
TORSDOF 8
ENDMDL
MODEL       89
REMARK  Name = ZINC001179997055
REMARK                            x       y       z     vdW  Elec       q    Type
REMARK                         _______ _______ _______ _____ _____    ______ ____
ROOT
ATOM      1  N   LIG    1        1.644  -1.960   1.465  0.00  0.00    -0.380 N 
ATOM      2  H   LIG    1        1.341  -1.801   2.414  0.00  0.00    +0.420 HD
ENDROOT
BRANCH   1   3
ATOM      3  C   LIG    1        0.762  -2.946   0.827  0.00  0.00    +0.160 C 
ATOM      4  C   LIG    1        1.212  -3.175  -0.617  0.00  0.00    +0.080 C 
ATOM      5  C   LIG    1       -0.676  -2.424   0.836  0.00  0.00    +0.080 C 
ENDBRANCH   1   3
BRANCH   1   6
ATOM      6  C   LIG    1        1.591  -0.698   0.716  0.00  0.00    +0.290 C 
BRANCH   6   8
ATOM      7  C   LIG    1        0.499   1.304   1.589  0.00  0.00    +0.130 C 
ATOM      8  C   LIG    1        0.371   0.083   1.133  0.00  0.00    -0.100 C 
ENDBRANCH   6   8
ENDBRANCH   1   6
BRANCH   1   9
ATOM      9  C   LIG    1        3.023  -2.468   1.470  0.00  0.00    +0.240 C 
BRANCH   9  10
ATOM     10  C   LIG    1        3.096  -3.735   2.325  0.00  0.00    +0.030 C 
BRANCH  10  11
ATOM     11  C   LIG    1        4.535  -4.253   2.347  0.00  0.00    +0.030 C 
BRANCH  11  12
ATOM     12  C   LIG    1        4.609  -5.520   3.202  0.00  0.00    +0.020 C 
BRANCH  12  13
ATOM     13  C   LIG    1        6.048  -6.037   3.224  0.00  0.00    -0.030 C 
ATOM     14  C   LIG    1        6.099  -7.370   3.974  0.00  0.00    +0.030 C 
ATOM     15  C   LIG    1        6.945  -5.020   3.932  0.00  0.00    +0.020 C 
ENDBRANCH  12  13
ENDBRANCH  11  12
ENDBRANCH  10  11
ENDBRANCH   9  10
ENDBRANCH   1   9
TORSDOF 8
ENDMDL
MODEL       90
REMARK  Name = ZINC000590941441
REMARK                            x       y       z     vdW  Elec       q    Type
REMARK                         _______ _______ _______ _____ _____    ______ ____
ROOT
ATOM      1  N   LIG    1        1.690  -1.436   1.563  0.00  0.00    -0.380 N 
ATOM      2  H   LIG    1        0.872  -1.834   2.000  0.00  0.00    +0.420 HD
ENDROOT
BRANCH   1   3
ATOM      3  C   LIG    1        2.860  -2.275   1.859  0.00  0.00    +0.160 C 
ATOM      4  C   LIG    1        3.014  -2.420   3.374  0.00  0.00    +0.040 C 
ATOM      5  C   LIG    1        4.232  -3.293   3.681  0.00  0.00    +0.030 C 
ATOM      6  C   LIG    1        4.040  -4.675   3.054  0.00  0.00    +0.020 C 
ATOM      7  C   LIG    1        3.886  -4.530   1.538  0.00  0.00    +0.030 C 
ATOM      8  C   LIG    1        2.668  -3.657   1.231  0.00  0.00    +0.040 C 
ENDBRANCH   1   3
BRANCH   1   9
ATOM      9  C   LIG    1        1.914  -0.082   2.086  0.00  0.00    +0.160 C 
ATOM     10  C   LIG    1        0.606   0.709   2.030  0.00  0.00    +0.070 C 
ATOM     11  C   LIG    1        2.973   0.624   1.237  0.00  0.00    +0.080 C 
ENDBRANCH   1   9
BRANCH   1  12
ATOM     12  C   LIG    1        1.487  -1.373   0.110  0.00  0.00    +0.300 C 
BRANCH  12  14
ATOM     13  C   LIG    1        0.208   0.387  -0.999  0.00  0.00    +0.100 C 
ATOM     14  C   LIG    1        0.204  -0.641  -0.187  0.00  0.00    -0.180 C 
ATOM     15  C   LIG    1       -1.085  -1.092   0.450  0.00  0.00    +0.100 C 
ENDBRANCH  12  14
ENDBRANCH   1  12
TORSDOF 4
ENDMDL
MODEL       91
REMARK  Name = ZINC001190324907
REMARK                            x       y       z     vdW  Elec       q    Type
REMARK                         _______ _______ _______ _____ _____    ______ ____
ROOT
ATOM      1  N   LIG    1        2.986  -1.915   1.351  0.00  0.00    -0.390 N 
ATOM      2  H   LIG    1        3.776  -1.375   1.032  0.00  0.00    +0.420 HD
ENDROOT
BRANCH   1   3
ATOM      3  C   LIG    1        2.780  -3.060   0.454  0.00  0.00    +0.240 C 
ATOM      4  C   LIG    1        1.517  -3.815   0.873  0.00  0.00    +0.080 C 
ENDBRANCH   1   3
BRANCH   1   5
ATOM      5  C   LIG    1        1.784  -1.071   1.351  0.00  0.00    +0.250 C 
BRANCH   5   6
ATOM      6  C   LIG    1        1.598  -0.448  -0.034  0.00  0.00    +0.070 C 
BRANCH   6   8
ATOM      7  C   LIG    1        0.328   1.627   0.171  0.00  0.00    +0.050 C 
ATOM      8  C   LIG    1        0.313   0.338  -0.062  0.00  0.00    -0.150 C 
ATOM      9  C   LIG    1       -0.991  -0.358  -0.359  0.00  0.00    +0.080 C 
ENDBRANCH   6   8
ENDBRANCH   5   6
ENDBRANCH   1   5
BRANCH   1  10
ATOM     10  C   LIG    1        3.244  -2.401   2.714  0.00  0.00    +0.250 C 
BRANCH  10  11
ATOM     11  C   LIG    1        4.572  -3.160   2.742  0.00  0.00    -0.010 C 
BRANCH  11  12
ATOM     12  C   LIG    1        4.804  -3.730   4.143  0.00  0.00    +0.040 C 
ATOM     13  C   LIG    1        3.739  -4.785   4.447  0.00  0.00    +0.020 C 
ENDBRANCH  11  12
BRANCH  11  14
ATOM     14  C   LIG    1        5.713  -2.206   2.384  0.00  0.00    +0.000 C 
ATOM     15  C   LIG    1        7.023  -2.991   2.290  0.00  0.00    +0.040 C 
ENDBRANCH  11  14
ENDBRANCH  10  11
ENDBRANCH   1  10
TORSDOF 8
ENDMDL
MODEL       92
REMARK  Name = ZINC001190331338
REMARK                            x       y       z     vdW  Elec       q    Type
REMARK                         _______ _______ _______ _____ _____    ______ ____
ROOT
ATOM      1  C   LIG    1        2.586  -5.826   3.644  0.00  0.00    +0.240 C 
ENDROOT
BRANCH   1   2
ATOM      2  N   LIG    1        3.019  -6.582   4.827  0.00  0.00    -0.360 N 
ATOM      3  H   LIG    1        3.947  -6.288   5.093  0.00  0.00    +0.420 HD
BRANCH   2   4
ATOM      4  C   LIG    1        3.031  -8.017   4.514  0.00  0.00    +0.090 C 
ATOM      5  C   LIG    1        2.435  -8.453   3.174  0.00  0.00    +0.090 C 
ATOM      6  C   LIG    1        3.950  -8.486   3.385  0.00  0.00    +0.100 C 
ENDBRANCH   2   4
BRANCH   2   7
ATOM      7  C   LIG    1        2.089  -6.330   5.936  0.00  0.00    +0.250 C 
ATOM      8  C   LIG    1        2.622  -6.990   7.209  0.00  0.00    +0.080 C 
ENDBRANCH   2   7
ENDBRANCH   1   2
BRANCH   1   9
ATOM      9  C   LIG    1        2.693  -4.327   3.929  0.00  0.00    +0.030 C 
BRANCH   9  10
ATOM     10  C   LIG    1        2.243  -3.540   2.697  0.00  0.00    +0.020 C 
BRANCH  10  11
ATOM     11  C   LIG    1        2.349  -2.040   2.983  0.00  0.00    +0.020 C 
BRANCH  11  12
ATOM     12  C   LIG    1        1.899  -1.253   1.750  0.00  0.00    +0.000 C 
BRANCH  12  13
ATOM     13  C   LIG    1        2.006   0.246   2.036  0.00  0.00    +0.000 C 
BRANCH  13  15
ATOM     14  C   LIG    1        1.662   2.532   1.089  0.00  0.00    +0.000 C 
ATOM     15  C   LIG    1        1.556   1.033   0.803  0.00  0.00    -0.010 C 
ENDBRANCH  13  15
ENDBRANCH  12  13
ENDBRANCH  11  12
ENDBRANCH  10  11
ENDBRANCH   9  10
ENDBRANCH   1   9
TORSDOF 9
ENDMDL
MODEL       93
REMARK  Name = ZINC001193472941
REMARK                            x       y       z     vdW  Elec       q    Type
REMARK                         _______ _______ _______ _____ _____    ______ ____
ROOT
ATOM      1  C   LIG    1        2.804  -3.691   2.067  0.00  0.00    +0.250 C 
ENDROOT
BRANCH   1   2
ATOM      2  N   LIG    1        2.805  -2.917   0.819  0.00  0.00    -0.390 N 
ATOM      3  C   LIG    1        3.213  -3.784  -0.295  0.00  0.00    +0.310 C 
ATOM      4  H   LIG    1        3.453  -2.148   0.901  0.00  0.00    +0.420 HD
BRANCH   2   5
ATOM      5  C   LIG    1        1.456  -2.396   0.564  0.00  0.00    +0.250 C 
BRANCH   5   6
ATOM      6  C   LIG    1        1.484  -1.488  -0.667  0.00  0.00    +0.060 C 
BRANCH   6   8
ATOM      7  C   LIG    1       -0.099   0.339  -1.014  0.00  0.00    +0.060 C 
ATOM      8  C   LIG    1        0.099  -0.953  -0.929  0.00  0.00    -0.070 C 
ENDBRANCH   6   8
ENDBRANCH   5   6
ENDBRANCH   2   5
ENDBRANCH   1   2
BRANCH   1   9
ATOM      9  C   LIG    1        4.232  -4.129   2.397  0.00  0.00    -0.010 C 
BRANCH   9  10
ATOM     10  C   LIG    1        5.089  -2.895   2.687  0.00  0.00    +0.000 C 
ATOM     11  C   LIG    1        6.548  -3.319   2.868  0.00  0.00    +0.040 C 
ENDBRANCH   9  10
BRANCH   9  12
ATOM     12  C   LIG    1        4.215  -5.038   3.628  0.00  0.00    +0.040 C 
BRANCH  12  13
ATOM     13  C   LIG    1        3.463  -6.330   3.297  0.00  0.00    +0.000 C 
BRANCH  13  14
ATOM     14  C   LIG    1        3.541  -7.285   4.489  0.00  0.00    +0.000 C 
ATOM     15  C   LIG    1        2.790  -8.576   4.159  0.00  0.00    +0.000 C 
ENDBRANCH  13  14
ENDBRANCH  12  13
ENDBRANCH   9  12
ENDBRANCH   1   9
TORSDOF 9
ENDMDL
MODEL       94
REMARK  Name = ZINC001193472933
REMARK                            x       y       z     vdW  Elec       q    Type
REMARK                         _______ _______ _______ _____ _____    ______ ____
ROOT
ATOM      1  C   LIG    1        2.689  -3.279   2.530  0.00  0.00    +0.250 C 
ENDROOT
BRANCH   1   2
ATOM      2  N   LIG    1        2.537  -2.420   3.712  0.00  0.00    -0.390 N 
ATOM      3  C   LIG    1        3.556  -1.363   3.684  0.00  0.00    +0.310 C 
ATOM      4  H   LIG    1        2.650  -2.974   4.547  0.00  0.00    +0.420 HD
BRANCH   2   5
ATOM      5  C   LIG    1        1.200  -1.811   3.705  0.00  0.00    +0.250 C 
BRANCH   5   6
ATOM      6  C   LIG    1        0.995  -1.017   4.997  0.00  0.00    +0.060 C 
BRANCH   6   8
ATOM      7  C   LIG    1       -1.203  -0.616   5.981  0.00  0.00    +0.060 C 
ATOM      8  C   LIG    1       -0.377  -0.392   4.990  0.00  0.00    -0.070 C 
ENDBRANCH   6   8
ENDBRANCH   5   6
ENDBRANCH   2   5
ENDBRANCH   1   2
BRANCH   1   9
ATOM      9  C   LIG    1        4.028  -4.016   2.605  0.00  0.00    -0.010 C 
BRANCH   9  10
ATOM     10  C   LIG    1        4.233  -4.832   1.327  0.00  0.00    +0.040 C 
ATOM     11  C   LIG    1        4.384  -3.884   0.136  0.00  0.00    +0.020 C 
ENDBRANCH   9  10
BRANCH   9  12
ATOM     12  C   LIG    1        4.026  -4.954   3.814  0.00  0.00    +0.000 C 
BRANCH  12  13
ATOM     13  C   LIG    1        5.406  -5.598   3.962  0.00  0.00    +0.020 C 
BRANCH  13  14
ATOM     14  C   LIG    1        5.405  -6.536   5.170  0.00  0.00    -0.010 C 
ATOM     15  C   LIG    1        6.785  -7.180   5.318  0.00  0.00    +0.020 C 
ENDBRANCH  13  14
ENDBRANCH  12  13
ENDBRANCH   9  12
ENDBRANCH   1   9
TORSDOF 9
ENDMDL
MODEL       95
REMARK  Name = ZINC001194221022
REMARK                            x       y       z     vdW  Elec       q    Type
REMARK                         _______ _______ _______ _____ _____    ______ ____
ROOT
ATOM      1  N   LIG    1        4.062  -4.156   2.430  0.00  0.00    -0.380 N 
ATOM      2  H   LIG    1        4.860  -3.550   2.543  0.00  0.00    +0.420 HD
ENDROOT
BRANCH   1   3
ATOM      3  C   LIG    1        3.939  -5.029   3.605  0.00  0.00    +0.150 C 
ATOM      4  C   LIG    1        5.260  -5.801   3.847  0.00  0.00    +0.040 C 
ATOM      5  C   LIG    1        5.182  -6.147   5.355  0.00  0.00    +0.050 C 
ATOM      6  C   LIG    1        4.544  -4.899   5.997  0.00  0.00    +0.030 C 
ATOM      7  C   LIG    1        3.753  -4.188   4.885  0.00  0.00    +0.030 C 
ENDBRANCH   1   3
BRANCH   1   8
ATOM      8  C   LIG    1        4.238  -4.979   1.226  0.00  0.00    +0.240 C 
ATOM      9  C   LIG    1        4.503  -4.072   0.023  0.00  0.00    +0.080 C 
ENDBRANCH   1   8
BRANCH   1  10
ATOM     10  C   LIG    1        2.845  -3.344   2.295  0.00  0.00    +0.240 C 
BRANCH  10  11
ATOM     11  C   LIG    1        1.632  -4.263   2.144  0.00  0.00    +0.030 C 
BRANCH  11  12
ATOM     12  C   LIG    1        0.358  -3.419   2.069  0.00  0.00    +0.030 C 
BRANCH  12  13
ATOM     13  C   LIG    1       -0.855  -4.338   1.919  0.00  0.00    +0.050 C 
BRANCH  13  15
ATOM     14  C   LIG    1       -2.928  -3.645   0.832  0.00  0.00    +0.020 C 
ATOM     15  C   LIG    1       -2.110  -3.507   1.845  0.00  0.00    -0.060 C 
ENDBRANCH  13  15
ENDBRANCH  12  13
ENDBRANCH  11  12
ENDBRANCH  10  11
ENDBRANCH   1  10
TORSDOF 7
ENDMDL
MODEL       96
REMARK  Name = ZINC001195074018
REMARK                            x       y       z     vdW  Elec       q    Type
REMARK                         _______ _______ _______ _____ _____    ______ ____
ROOT
ATOM      1  N   LIG    1        4.039  -4.159   2.305  0.00  0.00    -0.390 N 
ATOM      2  C   LIG    1        5.143  -3.211   2.572  0.00  0.00    +0.160 C 
ATOM      3  C   LIG    1        6.160  -4.018   3.417  0.00  0.00    +0.080 C 
ATOM      4  C   LIG    1        5.221  -4.878   4.302  0.00  0.00    +0.080 C 
ATOM      5  C   LIG    1        5.781  -2.753   1.260  0.00  0.00    +0.090 C 
ATOM      6  C   LIG    1        4.044  -5.190   3.358  0.00  0.00    +0.050 C 
ATOM      7  C   LIG    1        4.234  -6.571   2.728  0.00  0.00    +0.100 C 
ATOM      8  C   LIG    1        2.727  -5.146   4.136  0.00  0.00    +0.090 C 
ATOM      9  H   LIG    1        4.175  -4.592   1.404  0.00  0.00    +0.420 HD
ENDROOT
BRANCH   1  10
ATOM     10  C   LIG    1        2.757  -3.441   2.321  0.00  0.00    +0.250 C 
BRANCH  10  11
ATOM     11  C   LIG    1        2.705  -2.464   1.145  0.00  0.00    +0.030 C 
BRANCH  11  12
ATOM     12  C   LIG    1        1.370  -1.717   1.161  0.00  0.00    +0.030 C 
BRANCH  12  13
ATOM     13  C   LIG    1        1.317  -0.740  -0.015  0.00  0.00    +0.050 C 
BRANCH  13  15
ATOM     14  C   LIG    1       -0.016   1.306   0.009  0.00  0.00    +0.020 C 
ATOM     15  C   LIG    1        0.002  -0.004   0.002  0.00  0.00    -0.060 C 
ENDBRANCH  13  15
ENDBRANCH  12  13
ENDBRANCH  11  12
ENDBRANCH  10  11
ENDBRANCH   1  10
TORSDOF 5
ENDMDL
MODEL       97
REMARK  Name = ZINC001195074019
REMARK                            x       y       z     vdW  Elec       q    Type
REMARK                         _______ _______ _______ _____ _____    ______ ____
ROOT
ATOM      1  N   LIG    1        3.910  -4.186   2.670  0.00  0.00    -0.380 N 
ATOM      2  C   LIG    1        5.155  -3.396   2.556  0.00  0.00    +0.160 C 
ATOM      3  C   LIG    1        5.861  -3.571   3.924  0.00  0.00    +0.080 C 
ATOM      4  C   LIG    1        5.532  -5.050   4.259  0.00  0.00    +0.080 C 
ATOM      5  C   LIG    1        4.829  -1.922   2.307  0.00  0.00    +0.090 C 
ATOM      6  C   LIG    1        4.108  -5.223   3.699  0.00  0.00    +0.050 C 
ATOM      7  C   LIG    1        3.962  -6.610   3.069  0.00  0.00    +0.100 C 
ATOM      8  C   LIG    1        3.083  -5.046   4.820  0.00  0.00    +0.090 C 
ATOM      9  H   LIG    1        3.703  -4.622   1.784  0.00  0.00    +0.420 HD
ENDROOT
BRANCH   1  10
ATOM     10  C   LIG    1        2.801  -3.307   3.061  0.00  0.00    +0.240 C 
BRANCH  10  11
ATOM     11  C   LIG    1        2.266  -2.579   1.826  0.00  0.00    +0.020 C 
BRANCH  11  12
ATOM     12  C   LIG    1        1.020  -1.777   2.205  0.00  0.00    +0.030 C 
BRANCH  12  13
ATOM     13  C   LIG    1        0.485  -1.050   0.970  0.00  0.00    +0.050 C 
BRANCH  13  15
ATOM     14  C   LIG    1       -0.797   1.024   1.094  0.00  0.00    +0.020 C 
ATOM     15  C   LIG    1       -0.743  -0.260   1.344  0.00  0.00    -0.060 C 
ENDBRANCH  13  15
ENDBRANCH  12  13
ENDBRANCH  11  12
ENDBRANCH  10  11
ENDBRANCH   1  10
TORSDOF 5
ENDMDL
MODEL       98
REMARK  Name = ZINC001195497370
REMARK                            x       y       z     vdW  Elec       q    Type
REMARK                         _______ _______ _______ _____ _____    ______ ____
ROOT
ATOM      1  N   LIG    1       -3.921  -4.241  -2.347  0.00  0.00    -0.390 N 
ATOM      2  C   LIG    1       -3.976  -5.093  -1.151  0.00  0.00    +0.300 C 
ATOM      3  H   LIG    1       -4.697  -3.596  -2.336  0.00  0.00    +0.420 HD
ENDROOT
BRANCH   1   4
ATOM      4  C   LIG    1       -2.659  -3.489  -2.355  0.00  0.00    +0.250 C 
BRANCH   4   5
ATOM      5  C   LIG    1       -2.633  -2.524  -1.168  0.00  0.00    +0.030 C 
BRANCH   5   6
ATOM      6  C   LIG    1       -1.319  -1.741  -1.176  0.00  0.00    +0.040 C 
BRANCH   6   7
ATOM      7  C   LIG    1       -1.293  -0.775   0.010  0.00  0.00    +0.050 C 
BRANCH   7   9
ATOM      8  C   LIG    1       -0.016   1.306   0.009  0.00  0.00    +0.020 C 
ATOM      9  C   LIG    1        0.002  -0.004   0.002  0.00  0.00    -0.060 C 
ENDBRANCH   7   9
ENDBRANCH   6   7
ENDBRANCH   5   6
ENDBRANCH   4   5
ENDBRANCH   1   4
BRANCH   1  10
ATOM     10  C   LIG    1       -3.999  -5.080  -3.550  0.00  0.00    +0.240 C 
BRANCH  10  11
ATOM     11  C   LIG    1       -5.365  -5.767  -3.605  0.00  0.00    +0.040 C 
BRANCH  11  12
ATOM     12  C   LIG    1       -5.446  -6.641  -4.858  0.00  0.00    -0.060 C 
ATOM     13  C   LIG    1       -5.264  -5.768  -6.101  0.00  0.00    +0.020 C 
ATOM     14  C   LIG    1       -6.812  -7.328  -4.913  0.00  0.00    +0.040 C 
ATOM     15  C   LIG    1       -4.343  -7.701  -4.813  0.00  0.00    +0.030 C 
ENDBRANCH  11  12
ENDBRANCH  10  11
ENDBRANCH   1  10
TORSDOF 8
ENDMDL
MODEL       99
REMARK  Name = ZINC001196198254
REMARK                            x       y       z     vdW  Elec       q    Type
REMARK                         _______ _______ _______ _____ _____    ______ ____
ROOT
ATOM      1  N   LIG    1        1.834  -2.934   0.325  0.00  0.00    -0.380 N 
ATOM      2  H   LIG    1        1.696  -2.300   1.097  0.00  0.00    +0.420 HD
ENDROOT
BRANCH   1   3
ATOM      3  C   LIG    1        0.999  -4.128   0.515  0.00  0.00    +0.060 C 
ATOM      4  C   LIG    1       -0.394  -3.874  -0.066  0.00  0.00    +0.100 C 
ATOM      5  C   LIG    1        0.880  -4.433   2.010  0.00  0.00    +0.080 C 
ATOM      6  C   LIG    1        1.640  -5.319  -0.199  0.00  0.00    +0.090 C 
ENDBRANCH   1   3
BRANCH   1   7
ATOM      7  C   LIG    1        1.456  -2.268  -0.929  0.00  0.00    +0.300 C 
BRANCH   7   9
ATOM      8  C   LIG    1        0.332  -0.103  -1.026  0.00  0.00    +0.130 C 
ATOM      9  C   LIG    1        0.275  -1.365  -0.682  0.00  0.00    -0.110 C 
ENDBRANCH   7   9
ENDBRANCH   1   7
BRANCH   1  10
ATOM     10  C   LIG    1        3.247  -3.331   0.262  0.00  0.00    +0.260 C 
BRANCH  10  11
ATOM     11  C   LIG    1        3.668  -3.931   1.605  0.00  0.00    +0.070 C 
BRANCH  11  12
ATOM     12  C   LIG    1        5.152  -4.193   1.594  0.00  0.00    -0.080 C 
ATOM     13  C   LIG    1        5.921  -3.644   2.502  0.00  0.00    -0.090 C 
ATOM     14  C   LIG    1        7.407  -3.895   2.483  0.00  0.00    +0.090 C 
ATOM     15  C   LIG    1        5.319  -2.762   3.565  0.00  0.00    +0.070 C 
ENDBRANCH  11  12
ENDBRANCH  10  11
ENDBRANCH   1  10
TORSDOF 6
ENDMDL
MODEL      100
REMARK  Name = ZINC001198414106
REMARK                            x       y       z     vdW  Elec       q    Type
REMARK                         _______ _______ _______ _____ _____    ______ ____
ROOT
ATOM      1  N   LIG    1        2.212  -6.013  -3.799  0.00  0.00    -0.380 N 
ATOM      2  C   LIG    1        0.838  -6.521  -3.910  0.00  0.00    +0.310 C 
ATOM      3  H   LIG    1        2.627  -6.348  -2.943  0.00  0.00    +0.420 HD
ENDROOT
BRANCH   1   4
ATOM      4  C   LIG    1        2.192  -4.544  -3.791  0.00  0.00    +0.250 C 
BRANCH   4   5
ATOM      5  C   LIG    1        1.476  -4.051  -2.532  0.00  0.00    +0.030 C 
BRANCH   5   6
ATOM      6  C   LIG    1        1.455  -2.521  -2.524  0.00  0.00    +0.020 C 
BRANCH   6   7
ATOM      7  C   LIG    1        0.739  -2.027  -1.265  0.00  0.00    +0.020 C 
BRANCH   7   8
ATOM      8  C   LIG    1        0.718  -0.497  -1.257  0.00  0.00    +0.000 C 
BRANCH   8  10
ATOM      9  C   LIG    1       -0.019   1.526   0.010  0.00  0.00    +0.000 C 
ATOM     10  C   LIG    1        0.002  -0.004   0.002  0.00  0.00    -0.010 C 
ENDBRANCH   8  10
ENDBRANCH   7   8
ENDBRANCH   6   7
ENDBRANCH   5   6
ENDBRANCH   4   5
ENDBRANCH   1   4
BRANCH   1  11
ATOM     11  C   LIG    1        3.002  -6.486  -4.944  0.00  0.00    +0.260 C 
BRANCH  11  12
ATOM     12  C   LIG    1        3.127  -8.009  -4.883  0.00  0.00    -0.040 C 
ATOM     13  C   LIG    1        1.967  -8.751  -5.567  0.00  0.00    +0.020 C 
ATOM     14  C   LIG    1        3.017  -9.737  -6.104  0.00  0.00    +0.030 C 
ATOM     15  C   LIG    1        4.041  -8.596  -5.972  0.00  0.00    +0.040 C 
ENDBRANCH  11  12
ENDBRANCH   1  11
TORSDOF 8
ENDMDL
MODEL      101
REMARK  Name = ZINC001198458587
REMARK                            x       y       z     vdW  Elec       q    Type
REMARK                         _______ _______ _______ _____ _____    ______ ____
ROOT
ATOM      1  N   LIG    1        3.173  -3.279   1.370  0.00  0.00    -0.390 N 
ATOM      2  H   LIG    1        2.463  -3.929   1.066  0.00  0.00    +0.420 HD
ENDROOT
BRANCH   1   3
ATOM      3  C   LIG    1        2.687  -2.532   2.537  0.00  0.00    +0.240 C 
ATOM      4  C   LIG    1        1.353  -1.864   2.196  0.00  0.00    +0.080 C 
ENDBRANCH   1   3
BRANCH   1   5
ATOM      5  C   LIG    1        3.477  -2.341   0.280  0.00  0.00    +0.250 C 
BRANCH   5   6
ATOM      6  C   LIG    1        3.856  -3.126  -0.977  0.00  0.00    +0.040 C 
BRANCH   6   7
ATOM      7  C   LIG    1        4.058  -2.155  -2.142  0.00  0.00    +0.070 C 
BRANCH   7   9
ATOM      8  C   LIG    1        3.730  -2.788  -4.478  0.00  0.00    +0.030 C 
ATOM      9  C   LIG    1        4.433  -2.928  -3.381  0.00  0.00    -0.070 C 
ENDBRANCH   7   9
ENDBRANCH   6   7
ENDBRANCH   5   6
ENDBRANCH   1   5
BRANCH   1  10
ATOM     10  C   LIG    1        4.390  -4.018   1.733  0.00  0.00    +0.250 C 
BRANCH  10  11
ATOM     11  C   LIG    1        4.048  -5.080   2.779  0.00  0.00    +0.070 C 
BRANCH  11  12
ATOM     12  C   LIG    1        5.296  -5.838   3.152  0.00  0.00    -0.080 C 
ATOM     13  C   LIG    1        5.312  -7.146   3.086  0.00  0.00    -0.080 C 
ATOM     14  C   LIG    1        6.583  -7.900   3.382  0.00  0.00    +0.090 C 
ATOM     15  C   LIG    1        4.060  -7.898   2.713  0.00  0.00    +0.070 C 
ENDBRANCH  11  12
ENDBRANCH  10  11
ENDBRANCH   1  10
TORSDOF 8
ENDMDL
MODEL      102
REMARK  Name = ZINC000739911706
REMARK                            x       y       z     vdW  Elec       q    Type
REMARK                         _______ _______ _______ _____ _____    ______ ____
ROOT
ATOM      1  C   LIG    1       -2.659  -3.332  -2.372  0.00  0.00    +0.160 C 
ATOM      2  C   LIG    1       -3.973  -4.115  -2.363  0.00  0.00    +0.030 C 
ATOM      3  C   LIG    1       -4.245  -4.669  -3.763  0.00  0.00    +0.030 C 
ATOM      4  C   LIG    1       -3.341  -5.876  -4.019  0.00  0.00    +0.010 C 
ATOM      5  C   LIG    1       -1.918  -5.394  -4.311  0.00  0.00    +0.000 C 
ATOM      6  C   LIG    1       -1.970  -4.205  -5.272  0.00  0.00    +0.010 C 
ATOM      7  C   LIG    1       -1.495  -2.943  -4.548  0.00  0.00    +0.030 C 
ATOM      8  C   LIG    1       -2.601  -2.444  -3.616  0.00  0.00    +0.040 C 
ENDROOT
BRANCH   1   9
ATOM      9  N   LIG    1       -2.581  -2.493  -1.168  0.00  0.00    -0.390 N 
ATOM     10  C   LIG    1       -2.636  -3.344   0.027  0.00  0.00    +0.310 C 
ATOM     11  H   LIG    1       -3.357  -1.847  -1.157  0.00  0.00    +0.420 HD
BRANCH   9  12
ATOM     12  C   LIG    1       -1.319  -1.741  -1.176  0.00  0.00    +0.250 C 
BRANCH  12  13
ATOM     13  C   LIG    1       -1.293  -0.775   0.010  0.00  0.00    +0.070 C 
BRANCH  13  15
ATOM     14  C   LIG    1       -0.016   1.306   0.009  0.00  0.00    +0.060 C 
ATOM     15  C   LIG    1        0.002  -0.004   0.002  0.00  0.00    -0.060 C 
ENDBRANCH  13  15
ENDBRANCH  12  13
ENDBRANCH   9  12
ENDBRANCH   1   9
TORSDOF 4
ENDMDL
MODEL      103
REMARK  Name = ZINC000740875850
REMARK                            x       y       z     vdW  Elec       q    Type
REMARK                         _______ _______ _______ _____ _____    ______ ____
ROOT
ATOM      1  N   LIG    1        2.284  -6.053   3.696  0.00  0.00    -0.380 N 
ATOM      2  C   LIG    1        3.074  -6.526   2.551  0.00  0.00    +0.310 C 
ATOM      3  H   LIG    1        1.340  -6.402   3.620  0.00  0.00    +0.420 HD
ENDROOT
BRANCH   1   4
ATOM      4  C   LIG    1        2.887  -6.542   4.943  0.00  0.00    +0.190 C 
ATOM      5  C   LIG    1        2.064  -6.049   6.135  0.00  0.00    +0.090 C 
BRANCH   4   6
ATOM      6  C   LIG    1        2.908  -8.071   4.934  0.00  0.00    -0.090 C 
ATOM      7  C   LIG    1        4.271  -8.759   4.832  0.00  0.00    +0.040 C 
ATOM      8  C   LIG    1        3.503  -8.777   6.155  0.00  0.00    +0.070 C 
ENDBRANCH   4   6
ENDBRANCH   1   4
BRANCH   1   9
ATOM      9  C   LIG    1        2.264  -4.584   3.704  0.00  0.00    +0.240 C 
BRANCH   9  10
ATOM     10  C   LIG    1        1.524  -4.077   2.464  0.00  0.00    +0.030 C 
BRANCH  10  11
ATOM     11  C   LIG    1        1.503  -2.548   2.473  0.00  0.00    +0.020 C 
BRANCH  11  12
ATOM     12  C   LIG    1        0.763  -2.041   1.233  0.00  0.00    +0.020 C 
BRANCH  12  13
ATOM     13  C   LIG    1        0.742  -0.511   1.242  0.00  0.00    +0.000 C 
BRANCH  13  15
ATOM     14  C   LIG    1       -0.019   1.526   0.010  0.00  0.00    +0.000 C 
ATOM     15  C   LIG    1        0.002  -0.004   0.002  0.00  0.00    -0.010 C 
ENDBRANCH  13  15
ENDBRANCH  12  13
ENDBRANCH  11  12
ENDBRANCH  10  11
ENDBRANCH   9  10
ENDBRANCH   1   9
TORSDOF 8
ENDMDL
MODEL      104
REMARK  Name = ZINC000740875849
REMARK                            x       y       z     vdW  Elec       q    Type
REMARK                         _______ _______ _______ _____ _____    ______ ____
ROOT
ATOM      1  N   LIG    1        2.176  -6.271   3.696  0.00  0.00    -0.380 N 
ATOM      2  C   LIG    1        2.875  -6.761   2.500  0.00  0.00    +0.320 C 
ATOM      3  H   LIG    1        1.289  -6.743   3.784  0.00  0.00    +0.420 HD
ENDROOT
BRANCH   1   4
ATOM      4  C   LIG    1        2.994  -6.540   4.886  0.00  0.00    +0.200 C 
ATOM      5  C   LIG    1        3.341  -8.029   4.940  0.00  0.00    +0.100 C 
BRANCH   4   6
ATOM      6  C   LIG    1        2.210  -6.152   6.141  0.00  0.00    -0.080 C 
ATOM      7  C   LIG    1        1.753  -7.283   7.065  0.00  0.00    +0.050 C 
ATOM      8  C   LIG    1        2.895  -6.360   7.494  0.00  0.00    +0.070 C 
ENDBRANCH   4   6
ENDBRANCH   1   4
BRANCH   1   9
ATOM      9  C   LIG    1        1.950  -4.825   3.573  0.00  0.00    +0.250 C 
BRANCH   9  10
ATOM     10  C   LIG    1        0.980  -4.556   2.421  0.00  0.00    +0.030 C 
BRANCH  10  11
ATOM     11  C   LIG    1        0.745  -3.049   2.293  0.00  0.00    +0.020 C 
BRANCH  11  12
ATOM     12  C   LIG    1       -0.226  -2.780   1.141  0.00  0.00    +0.020 C 
BRANCH  12  13
ATOM     13  C   LIG    1       -0.460  -1.274   1.014  0.00  0.00    +0.000 C 
BRANCH  13  15
ATOM     14  C   LIG    1       -1.666   0.501  -0.266  0.00  0.00    +0.000 C 
ATOM     15  C   LIG    1       -1.431  -1.005  -0.138  0.00  0.00    -0.010 C 
ENDBRANCH  13  15
ENDBRANCH  12  13
ENDBRANCH  11  12
ENDBRANCH  10  11
ENDBRANCH   9  10
ENDBRANCH   1   9
TORSDOF 8
ENDMDL
MODEL      105
REMARK  Name = ZINC000743841178
REMARK                            x       y       z     vdW  Elec       q    Type
REMARK                         _______ _______ _______ _____ _____    ______ ____
ROOT
ATOM      1  N   LIG    1       -1.483  -1.977  -1.484  0.00  0.00    -0.380 N 
ATOM      2  H   LIG    1       -1.165  -1.725  -2.408  0.00  0.00    +0.420 HD
ENDROOT
BRANCH   1   3
ATOM      3  C   LIG    1       -0.551  -2.946  -0.893  0.00  0.00    +0.160 C 
ATOM      4  C   LIG    1       -1.020  -3.311   0.517  0.00  0.00    +0.080 C 
ATOM      5  C   LIG    1        0.848  -2.331  -0.822  0.00  0.00    +0.080 C 
ENDBRANCH   1   3
BRANCH   1   6
ATOM      6  C   LIG    1       -1.540  -0.775  -0.641  0.00  0.00    +0.290 C 
BRANCH   6   8
ATOM      7  C   LIG    1       -0.567   1.357  -1.325  0.00  0.00    +0.130 C 
ATOM      8  C   LIG    1       -0.366   0.116  -0.957  0.00  0.00    -0.100 C 
ENDBRANCH   6   8
ENDBRANCH   1   6
BRANCH   1   9
ATOM      9  C   LIG    1       -2.821  -2.576  -1.573  0.00  0.00    +0.240 C 
BRANCH   9  10
ATOM     10  C   LIG    1       -2.780  -3.779  -2.517  0.00  0.00    +0.040 C 
BRANCH  10  11
ATOM     11  C   LIG    1       -4.183  -4.373  -2.649  0.00  0.00    -0.060 C 
ATOM     12  C   LIG    1       -5.134  -3.316  -3.212  0.00  0.00    +0.020 C 
ATOM     13  C   LIG    1       -4.678  -4.822  -1.272  0.00  0.00    +0.020 C 
BRANCH  11  14
ATOM     14  C   LIG    1       -4.142  -5.577  -3.593  0.00  0.00    +0.030 C 
ATOM     15  C   LIG    1       -5.545  -6.171  -3.724  0.00  0.00    +0.020 C 
ENDBRANCH  11  14
ENDBRANCH  10  11
ENDBRANCH   9  10
ENDBRANCH   1   9
TORSDOF 7
ENDMDL
MODEL      106
REMARK  Name = ZINC000670264728
REMARK                            x       y       z     vdW  Elec       q    Type
REMARK                         _______ _______ _______ _____ _____    ______ ____
ROOT
ATOM      1  N   LIG    1       -2.658  -3.451  -2.307  0.00  0.00    -0.390 N 
ATOM      2  C   LIG    1       -2.670  -2.685  -3.561  0.00  0.00    +0.310 C 
ATOM      3  H   LIG    1       -1.839  -4.039  -2.280  0.00  0.00    +0.420 HD
ENDROOT
BRANCH   1   4
ATOM      4  C   LIG    1       -2.633  -2.524  -1.168  0.00  0.00    +0.250 C 
BRANCH   4   5
ATOM      5  C   LIG    1       -1.319  -1.741  -1.176  0.00  0.00    +0.040 C 
BRANCH   5   6
ATOM      6  C   LIG    1       -1.293  -0.775   0.010  0.00  0.00    +0.070 C 
BRANCH   6   8
ATOM      7  C   LIG    1       -0.016   1.306   0.009  0.00  0.00    +0.030 C 
ATOM      8  C   LIG    1        0.002  -0.004   0.002  0.00  0.00    -0.070 C 
ENDBRANCH   6   8
ENDBRANCH   5   6
ENDBRANCH   4   5
ENDBRANCH   1   4
BRANCH   1   9
ATOM      9  C   LIG    1       -3.864  -4.286  -2.232  0.00  0.00    +0.240 C 
BRANCH   9  10
ATOM     10  C   LIG    1       -3.829  -5.334  -3.347  0.00  0.00    -0.010 C 
ATOM     11  C   LIG    1       -2.658  -6.291  -3.110  0.00  0.00    +0.050 C 
BRANCH  10  12
ATOM     12  C   LIG    1       -5.140  -6.122  -3.347  0.00  0.00    -0.060 C 
ATOM     13  C   LIG    1       -5.316  -6.820  -1.997  0.00  0.00    +0.030 C 
ATOM     14  C   LIG    1       -5.104  -7.170  -4.462  0.00  0.00    +0.040 C 
ATOM     15  C   LIG    1       -6.310  -5.166  -3.584  0.00  0.00    +0.030 C 
ENDBRANCH  10  12
ENDBRANCH   9  10
ENDBRANCH   1   9
TORSDOF 7
ENDMDL
MODEL      107
REMARK  Name = ZINC000670264729
REMARK                            x       y       z     vdW  Elec       q    Type
REMARK                         _______ _______ _______ _____ _____    ______ ____
ROOT
ATOM      1  N   LIG    1       -2.966  -3.204  -2.369  0.00  0.00    -0.390 N 
ATOM      2  C   LIG    1       -3.295  -1.958  -1.663  0.00  0.00    +0.320 C 
ATOM      3  H   LIG    1       -2.560  -2.984  -3.266  0.00  0.00    +0.420 HD
ENDROOT
BRANCH   1   4
ATOM      4  C   LIG    1       -2.004  -3.978  -1.573  0.00  0.00    +0.240 C 
BRANCH   4   5
ATOM      5  C   LIG    1       -0.685  -3.208  -1.475  0.00  0.00    +0.040 C 
BRANCH   5   6
ATOM      6  C   LIG    1        0.316  -4.015  -0.647  0.00  0.00    +0.070 C 
BRANCH   6   8
ATOM      7  C   LIG    1        2.131  -2.987   0.623  0.00  0.00    +0.030 C 
ATOM      8  C   LIG    1        1.615  -3.256  -0.550  0.00  0.00    -0.070 C 
ENDBRANCH   6   8
ENDBRANCH   5   6
ENDBRANCH   4   5
ENDBRANCH   1   4
BRANCH   1   9
ATOM      9  C   LIG    1       -4.189  -3.994  -2.564  0.00  0.00    +0.240 C 
BRANCH   9  10
ATOM     10  C   LIG    1       -3.873  -5.217  -3.427  0.00  0.00    -0.020 C 
ATOM     11  C   LIG    1       -3.446  -4.759  -4.823  0.00  0.00    +0.040 C 
BRANCH  10  12
ATOM     12  C   LIG    1       -5.120  -6.097  -3.539  0.00  0.00    -0.060 C 
ATOM     13  C   LIG    1       -5.548  -6.555  -2.143  0.00  0.00    +0.030 C 
ATOM     14  C   LIG    1       -4.805  -7.320  -4.403  0.00  0.00    +0.040 C 
ATOM     15  C   LIG    1       -6.253  -5.296  -4.183  0.00  0.00    +0.020 C 
ENDBRANCH  10  12
ENDBRANCH   9  10
ENDBRANCH   1   9
TORSDOF 7
ENDMDL
MODEL      108
REMARK  Name = ZINC000748806300
REMARK                            x       y       z     vdW  Elec       q    Type
REMARK                         _______ _______ _______ _____ _____    ______ ____
ROOT
ATOM      1  C   LIG    1        2.918  -1.911   1.335  0.00  0.00    +0.160 C 
ATOM      2  C   LIG    1        3.315  -2.277   2.766  0.00  0.00    +0.030 C 
ATOM      3  C   LIG    1        4.319  -3.431   2.737  0.00  0.00    +0.030 C 
ATOM      4  C   LIG    1        5.693  -2.902   2.320  0.00  0.00    +0.010 C 
ATOM      5  C   LIG    1        5.702  -2.643   0.812  0.00  0.00    +0.000 C 
ATOM      6  C   LIG    1        5.033  -3.814   0.088  0.00  0.00    +0.010 C 
ATOM      7  C   LIG    1        3.726  -3.340  -0.549  0.00  0.00    +0.030 C 
ATOM      8  C   LIG    1        2.656  -3.189   0.535  0.00  0.00    +0.040 C 
ENDROOT
BRANCH   1   9
ATOM      9  N   LIG    1        1.699  -1.091   1.360  0.00  0.00    -0.380 N 
ATOM     10  C   LIG    1        1.949   0.136   2.128  0.00  0.00    +0.320 C 
ATOM     11  H   LIG    1        0.952  -1.613   1.793  0.00  0.00    +0.420 HD
BRANCH   9  12
ATOM     12  C   LIG    1        1.317  -0.740  -0.015  0.00  0.00    +0.300 C 
BRANCH  12  14
ATOM     13  C   LIG    1       -0.016   1.306   0.009  0.00  0.00    +0.110 C 
ATOM     14  C   LIG    1        0.002  -0.004   0.002  0.00  0.00    -0.190 C 
ATOM     15  C   LIG    1       -1.293  -0.775   0.010  0.00  0.00    +0.100 C 
ENDBRANCH  12  14
ENDBRANCH   9  12
ENDBRANCH   1   9
TORSDOF 3
ENDMDL
MODEL      109
REMARK  Name = ZINC001201535313
REMARK                            x       y       z     vdW  Elec       q    Type
REMARK                         _______ _______ _______ _____ _____    ______ ____
ROOT
ATOM      1  N   LIG    1        4.375  -4.028   1.900  0.00  0.00    -0.390 N 
ATOM      2  C   LIG    1        4.623  -4.910   0.752  0.00  0.00    +0.310 C 
ATOM      3  H   LIG    1        5.162  -3.408   2.024  0.00  0.00    +0.420 HD
ENDROOT
BRANCH   1   4
ATOM      4  C   LIG    1        3.162  -3.237   1.658  0.00  0.00    +0.250 C 
BRANCH   4   5
ATOM      5  C   LIG    1        3.393  -2.300   0.470  0.00  0.00    +0.030 C 
BRANCH   5   6
ATOM      6  C   LIG    1        2.129  -1.476   0.218  0.00  0.00    +0.050 C 
BRANCH   6   7
ATOM      7  C   LIG    1        2.360  -0.539  -0.970  0.00  0.00    +0.050 C 
BRANCH   7   9
ATOM      8  C   LIG    1        1.180   1.581  -1.246  0.00  0.00    +0.020 C 
ATOM      9  C   LIG    1        1.115   0.273  -1.219  0.00  0.00    -0.060 C 
ENDBRANCH   7   9
ENDBRANCH   6   7
ENDBRANCH   5   6
ENDBRANCH   4   5
ENDBRANCH   1   4
BRANCH   1  10
ATOM     10  C   LIG    1        4.197  -4.840   3.111  0.00  0.00    +0.250 C 
BRANCH  10  11
ATOM     11  C   LIG    1        5.503  -5.569   3.434  0.00  0.00    -0.020 C 
BRANCH  11  12
ATOM     12  C   LIG    1        5.282  -6.509   4.621  0.00  0.00    +0.040 C 
ATOM     13  C   LIG    1        4.292  -7.606   4.225  0.00  0.00    +0.020 C 
ENDBRANCH  11  12
BRANCH  11  14
ATOM     14  C   LIG    1        6.583  -4.545   3.789  0.00  0.00    +0.000 C 
ATOM     15  C   LIG    1        7.923  -5.261   3.971  0.00  0.00    +0.040 C 
ENDBRANCH  11  14
ENDBRANCH  10  11
ENDBRANCH   1  10
TORSDOF 9
ENDMDL
MODEL      110
REMARK  Name = ZINC001201553114
REMARK                            x       y       z     vdW  Elec       q    Type
REMARK                         _______ _______ _______ _____ _____    ______ ____
ROOT
ATOM      1  N   LIG    1       -3.921  -4.241  -2.347  0.00  0.00    -0.390 N 
ATOM      2  C   LIG    1       -3.976  -5.093  -1.151  0.00  0.00    +0.310 C 
ATOM      3  H   LIG    1       -4.697  -3.596  -2.336  0.00  0.00    +0.420 HD
ENDROOT
BRANCH   1   4
ATOM      4  C   LIG    1       -2.659  -3.489  -2.355  0.00  0.00    +0.250 C 
BRANCH   4   5
ATOM      5  C   LIG    1       -2.633  -2.524  -1.168  0.00  0.00    +0.030 C 
BRANCH   5   6
ATOM      6  C   LIG    1       -1.319  -1.741  -1.176  0.00  0.00    +0.050 C 
BRANCH   6   7
ATOM      7  C   LIG    1       -1.293  -0.775   0.010  0.00  0.00    +0.050 C 
BRANCH   7   9
ATOM      8  C   LIG    1       -0.016   1.306   0.009  0.00  0.00    +0.020 C 
ATOM      9  C   LIG    1        0.002  -0.004   0.002  0.00  0.00    -0.060 C 
ENDBRANCH   7   9
ENDBRANCH   6   7
ENDBRANCH   5   6
ENDBRANCH   4   5
ENDBRANCH   1   4
BRANCH   1  10
ATOM     10  C   LIG    1       -3.999  -5.080  -3.550  0.00  0.00    +0.250 C 
BRANCH  10  11
ATOM     11  C   LIG    1       -5.365  -5.767  -3.605  0.00  0.00    -0.030 C 
ATOM     12  C   LIG    1       -6.460  -4.712  -3.776  0.00  0.00    +0.040 C 
BRANCH  11  13
ATOM     13  C   LIG    1       -5.401  -6.736  -4.789  0.00  0.00    +0.030 C 
BRANCH  13  14
ATOM     14  C   LIG    1       -6.719  -7.514  -4.771  0.00  0.00    +0.000 C 
ATOM     15  C   LIG    1       -6.755  -8.482  -5.955  0.00  0.00    +0.020 C 
ENDBRANCH  13  14
ENDBRANCH  11  13
ENDBRANCH  10  11
ENDBRANCH   1  10
TORSDOF 9
ENDMDL
MODEL      111
REMARK  Name = ZINC001201553113
REMARK                            x       y       z     vdW  Elec       q    Type
REMARK                         _______ _______ _______ _____ _____    ______ ____
ROOT
ATOM      1  N   LIG    1       -3.967  -4.168  -2.415  0.00  0.00    -0.390 N 
ATOM      2  C   LIG    1       -4.200  -4.867  -1.144  0.00  0.00    +0.310 C 
ATOM      3  H   LIG    1       -4.681  -3.467  -2.549  0.00  0.00    +0.420 HD
ENDROOT
BRANCH   1   4
ATOM      4  C   LIG    1       -2.648  -3.523  -2.384  0.00  0.00    +0.250 C 
BRANCH   4   5
ATOM      5  C   LIG    1       -2.639  -2.430  -1.313  0.00  0.00    +0.030 C 
BRANCH   5   6
ATOM      6  C   LIG    1       -1.265  -1.759  -1.281  0.00  0.00    +0.040 C 
BRANCH   6   7
ATOM      7  C   LIG    1       -1.256  -0.666  -0.210  0.00  0.00    +0.050 C 
BRANCH   7   9
ATOM      8  C   LIG    1        0.195   1.294  -0.316  0.00  0.00    +0.020 C 
ATOM      9  C   LIG    1        0.098  -0.005  -0.178  0.00  0.00    -0.060 C 
ENDBRANCH   7   9
ENDBRANCH   6   7
ENDBRANCH   5   6
ENDBRANCH   4   5
ENDBRANCH   1   4
BRANCH   1  10
ATOM     10  C   LIG    1       -4.014  -5.133  -3.521  0.00  0.00    +0.250 C 
BRANCH  10  11
ATOM     11  C   LIG    1       -5.431  -5.700  -3.643  0.00  0.00    -0.030 C 
ATOM     12  C   LIG    1       -5.449  -6.801  -4.705  0.00  0.00    +0.070 C 
BRANCH  11  13
ATOM     13  C   LIG    1       -6.394  -4.583  -4.050  0.00  0.00    +0.000 C 
BRANCH  13  14
ATOM     14  C   LIG    1       -7.826  -5.120  -4.051  0.00  0.00    +0.010 C 
ATOM     15  C   LIG    1       -8.789  -4.003  -4.458  0.00  0.00    +0.010 C 
ENDBRANCH  13  14
ENDBRANCH  11  13
ENDBRANCH  10  11
ENDBRANCH   1  10
TORSDOF 9
ENDMDL
MODEL      112
REMARK  Name = ZINC001201553105
REMARK                            x       y       z     vdW  Elec       q    Type
REMARK                         _______ _______ _______ _____ _____    ______ ____
ROOT
ATOM      1  N   LIG    1        1.688  -1.629   0.814  0.00  0.00    -0.380 N 
ATOM      2  H   LIG    1        1.667  -1.071   1.654  0.00  0.00    +0.420 HD
ENDROOT
BRANCH   1   3
ATOM      3  C   LIG    1        0.530  -2.533   0.797  0.00  0.00    +0.060 C 
ATOM      4  C   LIG    1       -0.658  -1.830   0.138  0.00  0.00    +0.090 C 
ATOM      5  C   LIG    1        0.164  -2.917   2.232  0.00  0.00    +0.080 C 
ATOM      6  C   LIG    1        0.880  -3.795   0.005  0.00  0.00    +0.090 C 
ENDBRANCH   1   3
BRANCH   1   7
ATOM      7  C   LIG    1        1.637  -0.748  -0.361  0.00  0.00    +0.290 C 
BRANCH   7   9
ATOM      8  C   LIG    1        1.237   1.655  -0.185  0.00  0.00    +0.130 C 
ATOM      9  C   LIG    1        0.761   0.441  -0.060  0.00  0.00    -0.110 C 
ENDBRANCH   7   9
ENDBRANCH   1   7
BRANCH   1  10
ATOM     10  C   LIG    1        2.926  -2.418   0.780  0.00  0.00    +0.250 C 
BRANCH  10  11
ATOM     11  C   LIG    1        3.061  -3.211   2.082  0.00  0.00    -0.020 C 
ATOM     12  C   LIG    1        3.026  -2.249   3.271  0.00  0.00    +0.030 C 
BRANCH  11  13
ATOM     13  C   LIG    1        4.388  -3.972   2.080  0.00  0.00    +0.030 C 
BRANCH  13  14
ATOM     14  C   LIG    1        4.466  -4.862   3.323  0.00  0.00    +0.000 C 
ATOM     15  C   LIG    1        5.793  -5.623   3.321  0.00  0.00    +0.020 C 
ENDBRANCH  13  14
ENDBRANCH  11  13
ENDBRANCH  10  11
ENDBRANCH   1  10
TORSDOF 7
ENDMDL
MODEL      113
REMARK  Name = ZINC000674007608
REMARK                            x       y       z     vdW  Elec       q    Type
REMARK                         _______ _______ _______ _____ _____    ______ ____
ROOT
ATOM      1  N   LIG    1        3.597  -2.474   1.104  0.00  0.00    -0.380 N 
ATOM      2  H   LIG    1        3.801  -3.152   0.386  0.00  0.00    +0.420 HD
ENDROOT
BRANCH   1   3
ATOM      3  C   LIG    1        2.335  -1.791   0.789  0.00  0.00    +0.250 C 
BRANCH   3   4
ATOM      4  C   LIG    1        2.397  -1.236  -0.636  0.00  0.00    +0.060 C 
BRANCH   4   6
ATOM      5  C   LIG    1        1.115   0.709  -1.367  0.00  0.00    +0.060 C 
ATOM      6  C   LIG    1        1.103  -0.536  -0.959  0.00  0.00    -0.060 C 
ENDBRANCH   4   6
ENDBRANCH   3   4
ENDBRANCH   1   3
BRANCH   1   7
ATOM      7  C   LIG    1        3.475  -3.154   2.400  0.00  0.00    +0.160 C 
BRANCH   7   8
ATOM      8  C   LIG    1        2.807  -4.516   2.200  0.00  0.00    +0.050 C 
ATOM      9  C   LIG    1        3.709  -5.406   1.342  0.00  0.00    +0.040 C 
ENDBRANCH   7   8
BRANCH   7  10
ATOM     10  C   LIG    1        2.624  -2.303   3.345  0.00  0.00    +0.050 C 
ATOM     11  C   LIG    1        3.370  -1.010   3.677  0.00  0.00    +0.030 C 
ENDBRANCH   7  10
ENDBRANCH   1   7
BRANCH   1  12
ATOM     12  C   LIG    1        4.684  -1.488   1.169  0.00  0.00    +0.240 C 
BRANCH  12  13
ATOM     13  C   LIG    1        6.018  -2.211   1.364  0.00  0.00    -0.030 C 
ATOM     14  C   LIG    1        7.130  -1.182   1.577  0.00  0.00    +0.070 C 
ATOM     15  C   LIG    1        6.329  -3.050   0.123  0.00  0.00    +0.030 C 
ENDBRANCH  12  13
ENDBRANCH   1  12
TORSDOF 8
ENDMDL
MODEL      114
REMARK  Name = ZINC001201553106
REMARK                            x       y       z     vdW  Elec       q    Type
REMARK                         _______ _______ _______ _____ _____    ______ ____
ROOT
ATOM      1  N   LIG    1        1.300  -1.779   1.450  0.00  0.00    -0.380 N 
ATOM      2  H   LIG    1        1.058  -1.613   2.415  0.00  0.00    +0.420 HD
ENDROOT
BRANCH   1   3
ATOM      3  C   LIG    1        0.666  -3.023   0.993  0.00  0.00    +0.060 C 
ATOM      4  C   LIG    1       -0.674  -3.205   1.710  0.00  0.00    +0.080 C 
ATOM      5  C   LIG    1        1.579  -4.208   1.312  0.00  0.00    +0.080 C 
ATOM      6  C   LIG    1        0.431  -2.951  -0.517  0.00  0.00    +0.090 C 
ENDBRANCH   1   3
BRANCH   1   7
ATOM      7  C   LIG    1        0.827  -0.658   0.627  0.00  0.00    +0.280 C 
BRANCH   7   9
ATOM      8  C   LIG    1       -1.055   0.684   1.413  0.00  0.00    +0.130 C 
ATOM      9  C   LIG    1       -0.643  -0.437   0.875  0.00  0.00    -0.100 C 
ENDBRANCH   7   9
ENDBRANCH   1   7
BRANCH   1  10
ATOM     10  C   LIG    1        2.759  -1.898   1.323  0.00  0.00    +0.250 C 
BRANCH  10  11
ATOM     11  C   LIG    1        3.424  -0.645   1.897  0.00  0.00    -0.030 C 
ATOM     12  C   LIG    1        3.169  -0.577   3.404  0.00  0.00    +0.030 C 
BRANCH  11  13
ATOM     13  C   LIG    1        4.931  -0.704   1.637  0.00  0.00    +0.040 C 
BRANCH  13  14
ATOM     14  C   LIG    1        5.579   0.603   2.099  0.00  0.00    +0.000 C 
ATOM     15  C   LIG    1        7.085   0.545   1.839  0.00  0.00    +0.020 C 
ENDBRANCH  13  14
ENDBRANCH  11  13
ENDBRANCH  10  11
ENDBRANCH   1  10
TORSDOF 7
ENDMDL
MODEL      115
REMARK  Name = ZINC001201620077
REMARK                            x       y       z     vdW  Elec       q    Type
REMARK                         _______ _______ _______ _____ _____    ______ ____
ROOT
ATOM      1  N   LIG    1       -4.243  -6.121   0.010  0.00  0.00    -0.390 N 
ATOM      2  C   LIG    1       -3.639  -6.610   1.257  0.00  0.00    +0.300 C 
ATOM      3  H   LIG    1       -3.700  -6.446  -0.776  0.00  0.00    +0.420 HD
ENDROOT
BRANCH   1   4
ATOM      4  C   LIG    1       -4.263  -4.652   0.018  0.00  0.00    +0.250 C 
BRANCH   4   5
ATOM      5  C   LIG    1       -2.827  -4.123   0.007  0.00  0.00    +0.030 C 
BRANCH   5   6
ATOM      6  C   LIG    1       -2.848  -2.593   0.015  0.00  0.00    +0.020 C 
BRANCH   6   7
ATOM      7  C   LIG    1       -1.413  -2.063   0.004  0.00  0.00    +0.020 C 
BRANCH   7   8
ATOM      8  C   LIG    1       -1.433  -0.534   0.013  0.00  0.00    +0.000 C 
BRANCH   8  10
ATOM      9  C   LIG    1       -0.019   1.526   0.010  0.00  0.00    +0.000 C 
ATOM     10  C   LIG    1        0.002  -0.004   0.002  0.00  0.00    -0.010 C 
ENDBRANCH   8  10
ENDBRANCH   7   8
ENDBRANCH   6   7
ENDBRANCH   5   6
ENDBRANCH   4   5
ENDBRANCH   1   4
BRANCH   1  11
ATOM     11  C   LIG    1       -5.617  -6.629  -0.101  0.00  0.00    +0.250 C 
BRANCH  11  12
ATOM     12  C   LIG    1       -5.588  -8.153  -0.234  0.00  0.00    +0.030 C 
BRANCH  12  13
ATOM     13  C   LIG    1       -7.019  -8.682  -0.349  0.00  0.00    -0.010 C 
ATOM     14  C   LIG    1       -6.998 -10.212  -0.358  0.00  0.00    +0.040 C 
ATOM     15  C   LIG    1       -7.648  -8.173  -1.648  0.00  0.00    +0.020 C 
ENDBRANCH  12  13
ENDBRANCH  11  12
ENDBRANCH   1  11
TORSDOF 9
ENDMDL
MODEL      116
REMARK  Name = ZINC001201761732
REMARK                            x       y       z     vdW  Elec       q    Type
REMARK                         _______ _______ _______ _____ _____    ______ ____
ROOT
ATOM      1  N   LIG    1        2.212  -6.013  -3.799  0.00  0.00    -0.380 N 
ATOM      2  C   LIG    1        0.838  -6.521  -3.910  0.00  0.00    +0.310 C 
ATOM      3  H   LIG    1        2.627  -6.348  -2.943  0.00  0.00    +0.420 HD
ENDROOT
BRANCH   1   4
ATOM      4  C   LIG    1        3.002  -6.486  -4.944  0.00  0.00    +0.150 C 
ATOM      5  C   LIG    1        4.518  -6.498  -4.683  0.00  0.00    +0.050 C 
ATOM      6  C   LIG    1        4.558  -7.832  -5.447  0.00  0.00    +0.010 C 
ATOM      7  C   LIG    1        5.499  -8.867  -4.825  0.00  0.00    +0.050 C 
ATOM      8  C   LIG    1        3.086  -8.018  -5.044  0.00  0.00    +0.050 C 
ENDBRANCH   1   4
BRANCH   1   9
ATOM      9  C   LIG    1        2.192  -4.544  -3.791  0.00  0.00    +0.250 C 
BRANCH   9  10
ATOM     10  C   LIG    1        1.476  -4.051  -2.532  0.00  0.00    +0.030 C 
BRANCH  10  11
ATOM     11  C   LIG    1        1.455  -2.521  -2.524  0.00  0.00    +0.020 C 
BRANCH  11  12
ATOM     12  C   LIG    1        0.739  -2.027  -1.265  0.00  0.00    +0.020 C 
BRANCH  12  13
ATOM     13  C   LIG    1        0.718  -0.497  -1.257  0.00  0.00    +0.000 C 
BRANCH  13  15
ATOM     14  C   LIG    1       -0.019   1.526   0.010  0.00  0.00    +0.000 C 
ATOM     15  C   LIG    1        0.002  -0.004   0.002  0.00  0.00    -0.010 C 
ENDBRANCH  13  15
ENDBRANCH  12  13
ENDBRANCH  11  12
ENDBRANCH  10  11
ENDBRANCH   9  10
ENDBRANCH   1   9
TORSDOF 7
ENDMDL
MODEL      117
REMARK  Name = ZINC001201787736
REMARK                            x       y       z     vdW  Elec       q    Type
REMARK                         _______ _______ _______ _____ _____    ______ ____
ROOT
ATOM      1  N   LIG    1        1.603  -1.128   1.244  0.00  0.00    -0.380 N 
ATOM      2  H   LIG    1        0.858  -1.680   1.643  0.00  0.00    +0.420 HD
ENDROOT
BRANCH   1   3
ATOM      3  C   LIG    1        1.942  -0.030   2.159  0.00  0.00    +0.240 C 
ATOM      4  C   LIG    1        0.681   0.774   2.482  0.00  0.00    +0.080 C 
ENDBRANCH   1   3
BRANCH   1   5
ATOM      5  C   LIG    1        1.165  -0.574  -0.044  0.00  0.00    +0.300 C 
BRANCH   5   7
ATOM      6  C   LIG    1       -0.615  -1.987  -0.937  0.00  0.00    +0.120 C 
ATOM      7  C   LIG    1        0.660  -1.688  -0.925  0.00  0.00    -0.200 C 
ATOM      8  C   LIG    1        1.623  -2.458  -1.792  0.00  0.00    +0.100 C 
ENDBRANCH   5   7
ENDBRANCH   1   5
BRANCH   1   9
ATOM      9  C   LIG    1        2.784  -1.976   1.036  0.00  0.00    +0.250 C 
BRANCH   9  10
ATOM     10  C   LIG    1        3.211  -2.591   2.370  0.00  0.00    +0.030 C 
BRANCH  10  11
ATOM     11  C   LIG    1        4.441  -3.474   2.153  0.00  0.00    +0.020 C 
BRANCH  11  12
ATOM     12  C   LIG    1        4.869  -4.090   3.487  0.00  0.00    +0.020 C 
BRANCH  12  13
ATOM     13  C   LIG    1        6.099  -4.973   3.271  0.00  0.00    +0.000 C 
BRANCH  13  14
ATOM     14  C   LIG    1        6.526  -5.589   4.604  0.00  0.00    -0.010 C 
ATOM     15  C   LIG    1        7.757  -6.472   4.388  0.00  0.00    +0.000 C 
ENDBRANCH  13  14
ENDBRANCH  12  13
ENDBRANCH  11  12
ENDBRANCH  10  11
ENDBRANCH   9  10
ENDBRANCH   1   9
TORSDOF 9
ENDMDL
MODEL      118
REMARK  Name = ZINC001201804384
REMARK                            x       y       z     vdW  Elec       q    Type
REMARK                         _______ _______ _______ _____ _____    ______ ____
ROOT
ATOM      1  C   LIG    1        2.284  -6.114   3.695  0.00  0.00    +0.250 C 
ENDROOT
BRANCH   1   2
ATOM      2  N   LIG    1        2.995  -6.601   4.886  0.00  0.00    -0.380 N 
ATOM      3  C   LIG    1        2.242  -6.229   6.091  0.00  0.00    +0.310 C 
ATOM      4  H   LIG    1        3.914  -6.186   4.921  0.00  0.00    +0.420 HD
BRANCH   2   5
ATOM      5  C   LIG    1        3.119  -8.063   4.818  0.00  0.00    +0.290 C 
BRANCH   5   6
ATOM      6  C   LIG    1        3.966  -8.557   5.992  0.00  0.00    -0.090 C 
ATOM      7  C   LIG    1        3.289  -9.471   7.016  0.00  0.00    +0.050 C 
ATOM      8  C   LIG    1        4.312 -10.047   6.035  0.00  0.00    +0.070 C 
ENDBRANCH   5   6
ENDBRANCH   2   5
ENDBRANCH   1   2
BRANCH   1   9
ATOM      9  C   LIG    1        2.264  -4.584   3.704  0.00  0.00    +0.030 C 
BRANCH   9  10
ATOM     10  C   LIG    1        1.524  -4.077   2.464  0.00  0.00    +0.020 C 
BRANCH  10  11
ATOM     11  C   LIG    1        1.503  -2.548   2.473  0.00  0.00    +0.020 C 
BRANCH  11  12
ATOM     12  C   LIG    1        0.763  -2.041   1.233  0.00  0.00    +0.000 C 
BRANCH  12  13
ATOM     13  C   LIG    1        0.742  -0.511   1.242  0.00  0.00    +0.000 C 
BRANCH  13  15
ATOM     14  C   LIG    1       -0.019   1.526   0.010  0.00  0.00    +0.000 C 
ATOM     15  C   LIG    1        0.002  -0.004   0.002  0.00  0.00    -0.010 C 
ENDBRANCH  13  15
ENDBRANCH  12  13
ENDBRANCH  11  12
ENDBRANCH  10  11
ENDBRANCH   9  10
ENDBRANCH   1   9
TORSDOF 9
ENDMDL
MODEL      119
REMARK  Name = ZINC001201754462
REMARK                            x       y       z     vdW  Elec       q    Type
REMARK                         _______ _______ _______ _____ _____    ______ ____
ROOT
ATOM      1  N   LIG    1        4.039  -4.159   2.305  0.00  0.00    -0.390 N 
ATOM      2  C   LIG    1        4.117  -4.995   1.100  0.00  0.00    +0.300 C 
ATOM      3  H   LIG    1        4.797  -3.492   2.301  0.00  0.00    +0.420 HD
ENDROOT
BRANCH   1   4
ATOM      4  C   LIG    1        2.757  -3.441   2.321  0.00  0.00    +0.250 C 
BRANCH   4   5
ATOM      5  C   LIG    1        2.705  -2.464   1.145  0.00  0.00    +0.030 C 
BRANCH   5   6
ATOM      6  C   LIG    1        1.370  -1.717   1.161  0.00  0.00    +0.040 C 
BRANCH   6   7
ATOM      7  C   LIG    1        1.317  -0.740  -0.015  0.00  0.00    +0.050 C 
BRANCH   7   9
ATOM      8  C   LIG    1       -0.016   1.306   0.009  0.00  0.00    +0.020 C 
ATOM      9  C   LIG    1        0.002  -0.004   0.002  0.00  0.00    -0.060 C 
ENDBRANCH   7   9
ENDBRANCH   6   7
ENDBRANCH   5   6
ENDBRANCH   4   5
ENDBRANCH   1   4
BRANCH   1  10
ATOM     10  C   LIG    1        4.140  -5.008   3.498  0.00  0.00    +0.250 C 
BRANCH  10  11
ATOM     11  C   LIG    1        5.524  -5.659   3.546  0.00  0.00    +0.030 C 
BRANCH  11  12
ATOM     12  C   LIG    1        5.629  -6.544   4.790  0.00  0.00    +0.020 C 
BRANCH  12  13
ATOM     13  C   LIG    1        7.013  -7.194   4.838  0.00  0.00    +0.020 C 
BRANCH  13  14
ATOM     14  C   LIG    1        7.118  -8.080   6.081  0.00  0.00    -0.010 C 
ATOM     15  C   LIG    1        8.502  -8.730   6.129  0.00  0.00    +0.020 C 
ENDBRANCH  13  14
ENDBRANCH  12  13
ENDBRANCH  11  12
ENDBRANCH  10  11
ENDBRANCH   1  10
TORSDOF 10
ENDMDL
MODEL      120
REMARK  Name = ZINC001201798028
REMARK                            x       y       z     vdW  Elec       q    Type
REMARK                         _______ _______ _______ _____ _____    ______ ____
ROOT
ATOM      1  N   LIG    1        2.212  -6.013  -3.799  0.00  0.00    -0.390 N 
ATOM      2  C   LIG    1        0.838  -6.521  -3.910  0.00  0.00    +0.310 C 
ATOM      3  H   LIG    1        2.627  -6.348  -2.943  0.00  0.00    +0.420 HD
ENDROOT
BRANCH   1   4
ATOM      4  C   LIG    1        2.192  -4.544  -3.791  0.00  0.00    +0.250 C 
BRANCH   4   5
ATOM      5  C   LIG    1        1.476  -4.051  -2.532  0.00  0.00    +0.030 C 
BRANCH   5   6
ATOM      6  C   LIG    1        1.455  -2.521  -2.524  0.00  0.00    +0.020 C 
BRANCH   6   7
ATOM      7  C   LIG    1        0.739  -2.027  -1.265  0.00  0.00    +0.020 C 
BRANCH   7   8
ATOM      8  C   LIG    1        0.718  -0.497  -1.257  0.00  0.00    +0.000 C 
BRANCH   8  10
ATOM      9  C   LIG    1       -0.019   1.526   0.010  0.00  0.00    +0.000 C 
ATOM     10  C   LIG    1        0.002  -0.004   0.002  0.00  0.00    -0.010 C 
ENDBRANCH   8  10
ENDBRANCH   7   8
ENDBRANCH   6   7
ENDBRANCH   5   6
ENDBRANCH   4   5
ENDBRANCH   1   4
BRANCH   1  11
ATOM     11  C   LIG    1        3.002  -6.486  -4.944  0.00  0.00    +0.250 C 
BRANCH  11  12
ATOM     12  C   LIG    1        3.127  -8.009  -4.883  0.00  0.00    +0.060 C 
BRANCH  12  13
ATOM     13  C   LIG    1        3.950  -8.502  -6.075  0.00  0.00    -0.060 C 
ATOM     14  C   LIG    1        5.285  -9.187  -5.777  0.00  0.00    +0.030 C 
ATOM     15  C   LIG    1        4.092 -10.014  -6.259  0.00  0.00    +0.030 C 
ENDBRANCH  12  13
ENDBRANCH  11  12
ENDBRANCH   1  11
TORSDOF 9
ENDMDL
MODEL      121
REMARK  Name = ZINC001201756506
REMARK                            x       y       z     vdW  Elec       q    Type
REMARK                         _______ _______ _______ _____ _____    ______ ____
ROOT
ATOM      1  N   LIG    1        1.508  -1.640   0.834  0.00  0.00    -0.380 N 
ATOM      2  H   LIG    1        1.562  -1.074   1.668  0.00  0.00    +0.420 HD
ENDROOT
BRANCH   1   3
ATOM      3  C   LIG    1        0.417  -2.614   0.974  0.00  0.00    +0.060 C 
ATOM      4  C   LIG    1       -0.896  -1.978   0.514  0.00  0.00    +0.100 C 
ATOM      5  C   LIG    1        0.294  -3.035   2.439  0.00  0.00    +0.080 C 
ATOM      6  C   LIG    1        0.717  -3.843   0.113  0.00  0.00    +0.090 C 
ENDBRANCH   1   3
BRANCH   1   7
ATOM      7  C   LIG    1        1.250  -0.779  -0.327  0.00  0.00    +0.300 C 
BRANCH   7   9
ATOM      8  C   LIG    1        0.700   1.592  -0.131  0.00  0.00    +0.130 C 
ATOM      9  C   LIG    1        0.338   0.350   0.078  0.00  0.00    -0.110 C 
ENDBRANCH   7   9
ENDBRANCH   1   7
BRANCH   1  10
ATOM     10  C   LIG    1        2.779  -2.352   0.643  0.00  0.00    +0.250 C 
BRANCH  10  11
ATOM     11  C   LIG    1        3.105  -3.159   1.901  0.00  0.00    +0.030 C 
BRANCH  11  12
ATOM     12  C   LIG    1        4.501  -3.771   1.767  0.00  0.00    +0.020 C 
BRANCH  12  13
ATOM     13  C   LIG    1        4.828  -4.578   3.025  0.00  0.00    +0.020 C 
BRANCH  13  14
ATOM     14  C   LIG    1        6.224  -5.189   2.891  0.00  0.00    -0.010 C 
ATOM     15  C   LIG    1        6.550  -5.996   4.149  0.00  0.00    +0.020 C 
ENDBRANCH  13  14
ENDBRANCH  12  13
ENDBRANCH  11  12
ENDBRANCH  10  11
ENDBRANCH   1  10
TORSDOF 8
ENDMDL
MODEL      122
REMARK  Name = ZINC001201776983
REMARK                            x       y       z     vdW  Elec       q    Type
REMARK                         _______ _______ _______ _____ _____    ______ ____
ROOT
ATOM      1  C   LIG    1        2.192  -4.544  -3.791  0.00  0.00    +0.240 C 
ENDROOT
BRANCH   1   2
ATOM      2  N   LIG    1        2.212  -6.013  -3.799  0.00  0.00    -0.380 N 
ATOM      3  C   LIG    1        0.838  -6.521  -3.910  0.00  0.00    +0.320 C 
ATOM      4  H   LIG    1        2.627  -6.348  -2.943  0.00  0.00    +0.420 HD
BRANCH   2   5
ATOM      5  C   LIG    1        3.002  -6.486  -4.944  0.00  0.00    +0.050 C 
ATOM      6  C   LIG    1        2.373  -5.977  -6.243  0.00  0.00    +0.080 C 
ATOM      7  C   LIG    1        3.023  -8.015  -4.952  0.00  0.00    +0.080 C 
ATOM      8  C   LIG    1        4.433  -5.957  -4.829  0.00  0.00    +0.090 C 
ENDBRANCH   2   5
ENDBRANCH   1   2
BRANCH   1   9
ATOM      9  C   LIG    1        1.476  -4.051  -2.532  0.00  0.00    +0.030 C 
BRANCH   9  10
ATOM     10  C   LIG    1        1.455  -2.521  -2.524  0.00  0.00    +0.020 C 
BRANCH  10  11
ATOM     11  C   LIG    1        0.739  -2.027  -1.265  0.00  0.00    +0.020 C 
BRANCH  11  12
ATOM     12  C   LIG    1        0.718  -0.497  -1.257  0.00  0.00    +0.000 C 
BRANCH  12  14
ATOM     13  C   LIG    1       -0.019   1.526   0.010  0.00  0.00    +0.000 C 
ATOM     14  C   LIG    1        0.002  -0.004   0.002  0.00  0.00    -0.010 C 
ENDBRANCH  12  14
ENDBRANCH  11  12
ENDBRANCH  10  11
ENDBRANCH   9  10
ENDBRANCH   1   9
TORSDOF 7
ENDMDL
MODEL      123
REMARK  Name = ZINC001201761310
REMARK                            x       y       z     vdW  Elec       q    Type
REMARK                         _______ _______ _______ _____ _____    ______ ____
ROOT
ATOM      1  N   LIG    1        2.212  -6.013  -3.799  0.00  0.00    -0.360 N 
ATOM      2  C   LIG    1        0.835  -6.544  -3.974  0.00  0.00    +0.270 C 
ATOM      3  C   LIG    1        1.071  -7.972  -4.527  0.00  0.00    +0.080 C 
ATOM      4  C   LIG    1        2.292  -7.786  -5.458  0.00  0.00    +0.110 C 
ATOM      5  C   LIG    1        2.982  -6.505  -4.958  0.00  0.00    -0.050 C 
ATOM      6  C   LIG    1        3.624  -5.530  -5.941  0.00  0.00    +0.110 C 
ATOM      7  C   LIG    1        4.501  -6.366  -5.006  0.00  0.00    +0.110 C 
ATOM      8  H   LIG    1        2.613  -6.361  -2.941  0.00  0.00    +0.420 HD
ENDROOT
BRANCH   1   9
ATOM      9  C   LIG    1        2.192  -4.544  -3.791  0.00  0.00    +0.250 C 
BRANCH   9  10
ATOM     10  C   LIG    1        1.476  -4.051  -2.532  0.00  0.00    +0.030 C 
BRANCH  10  11
ATOM     11  C   LIG    1        1.455  -2.521  -2.524  0.00  0.00    +0.020 C 
BRANCH  11  12
ATOM     12  C   LIG    1        0.739  -2.027  -1.265  0.00  0.00    +0.020 C 
BRANCH  12  13
ATOM     13  C   LIG    1        0.718  -0.497  -1.257  0.00  0.00    +0.000 C 
BRANCH  13  15
ATOM     14  C   LIG    1       -0.019   1.526   0.010  0.00  0.00    +0.000 C 
ATOM     15  C   LIG    1        0.002  -0.004   0.002  0.00  0.00    -0.010 C 
ENDBRANCH  13  15
ENDBRANCH  12  13
ENDBRANCH  11  12
ENDBRANCH  10  11
ENDBRANCH   9  10
ENDBRANCH   1   9
TORSDOF 6
ENDMDL
MODEL      124
REMARK  Name = ZINC001201787612
REMARK                            x       y       z     vdW  Elec       q    Type
REMARK                         _______ _______ _______ _____ _____    ______ ____
ROOT
ATOM      1  N   LIG    1       -4.243  -6.121   0.010  0.00  0.00    -0.380 N 
ATOM      2  C   LIG    1       -3.639  -6.610   1.257  0.00  0.00    +0.320 C 
ATOM      3  H   LIG    1       -3.700  -6.446  -0.776  0.00  0.00    +0.420 HD
ENDROOT
BRANCH   1   4
ATOM      4  C   LIG    1       -5.617  -6.629  -0.101  0.00  0.00    +0.160 C 
ATOM      5  C   LIG    1       -6.231  -6.237  -1.467  0.00  0.00    +0.040 C 
ATOM      6  C   LIG    1       -7.339  -7.303  -1.662  0.00  0.00    +0.050 C 
ATOM      7  C   LIG    1       -6.718  -8.600  -1.104  0.00  0.00    +0.030 C 
ATOM      8  C   LIG    1       -5.623  -8.172  -0.111  0.00  0.00    +0.040 C 
ENDBRANCH   1   4
BRANCH   1   9
ATOM      9  C   LIG    1       -4.263  -4.652   0.018  0.00  0.00    +0.250 C 
BRANCH   9  10
ATOM     10  C   LIG    1       -2.827  -4.123   0.007  0.00  0.00    +0.030 C 
BRANCH  10  11
ATOM     11  C   LIG    1       -2.848  -2.593   0.015  0.00  0.00    +0.020 C 
BRANCH  11  12
ATOM     12  C   LIG    1       -1.413  -2.063   0.004  0.00  0.00    +0.020 C 
BRANCH  12  13
ATOM     13  C   LIG    1       -1.433  -0.534   0.013  0.00  0.00    +0.000 C 
BRANCH  13  15
ATOM     14  C   LIG    1       -0.019   1.526   0.010  0.00  0.00    +0.000 C 
ATOM     15  C   LIG    1        0.002  -0.004   0.002  0.00  0.00    -0.010 C 
ENDBRANCH  13  15
ENDBRANCH  12  13
ENDBRANCH  11  12
ENDBRANCH  10  11
ENDBRANCH   9  10
ENDBRANCH   1   9
TORSDOF 7
ENDMDL
MODEL      125
REMARK  Name = ZINC001201804432
REMARK                            x       y       z     vdW  Elec       q    Type
REMARK                         _______ _______ _______ _____ _____    ______ ____
ROOT
ATOM      1  C   LIG    1       -4.263  -4.652   0.018  0.00  0.00    +0.030 C 
ENDROOT
BRANCH   1   2
ATOM      2  C   LIG    1       -2.827  -4.123   0.007  0.00  0.00    +0.020 C 
BRANCH   2   3
ATOM      3  C   LIG    1       -2.848  -2.593   0.015  0.00  0.00    +0.020 C 
BRANCH   3   4
ATOM      4  C   LIG    1       -1.413  -2.063   0.004  0.00  0.00    +0.000 C 
BRANCH   4   5
ATOM      5  C   LIG    1       -1.433  -0.534   0.013  0.00  0.00    +0.000 C 
BRANCH   5   7
ATOM      6  C   LIG    1       -0.019   1.526   0.010  0.00  0.00    +0.000 C 
ATOM      7  C   LIG    1        0.002  -0.004   0.002  0.00  0.00    -0.010 C 
ENDBRANCH   5   7
ENDBRANCH   4   5
ENDBRANCH   3   4
ENDBRANCH   2   3
ENDBRANCH   1   2
BRANCH   1   8
ATOM      8  C   LIG    1       -4.242  -6.182   0.009  0.00  0.00    +0.240 C 
BRANCH   8   9
ATOM      9  N   LIG    1       -5.620  -6.691   0.020  0.00  0.00    -0.380 N 
ATOM     10  C   LIG    1       -6.294  -6.304  -1.227  0.00  0.00    +0.320 C 
ATOM     11  H   LIG    1       -6.117  -6.300   0.806  0.00  0.00    +0.420 HD
BRANCH   9  12
ATOM     12  C   LIG    1       -5.601  -8.155   0.133  0.00  0.00    +0.160 C 
ATOM     13  C   LIG    1       -7.036  -8.685   0.143  0.00  0.00    +0.090 C 
ATOM     14  C   LIG    1       -4.899  -8.558   1.431  0.00  0.00    +0.080 C 
ENDBRANCH   9  12
ENDBRANCH   8   9
ENDBRANCH   1   8
TORSDOF 8
ENDMDL
MODEL      126
REMARK  Name = ZINC001201839027
REMARK                            x       y       z     vdW  Elec       q    Type
REMARK                         _______ _______ _______ _____ _____    ______ ____
ROOT
ATOM      1  C   LIG    1        2.213  -6.074  -3.800  0.00  0.00    +0.030 C 
ENDROOT
BRANCH   1   2
ATOM      2  C   LIG    1        2.192  -4.544  -3.791  0.00  0.00    +0.020 C 
BRANCH   2   3
ATOM      3  C   LIG    1        1.476  -4.051  -2.532  0.00  0.00    +0.020 C 
BRANCH   3   4
ATOM      4  C   LIG    1        1.455  -2.521  -2.524  0.00  0.00    +0.000 C 
BRANCH   4   5
ATOM      5  C   LIG    1        0.739  -2.027  -1.265  0.00  0.00    +0.000 C 
BRANCH   5   6
ATOM      6  C   LIG    1        0.718  -0.497  -1.257  0.00  0.00    +0.000 C 
BRANCH   6   8
ATOM      7  C   LIG    1       -0.019   1.526   0.010  0.00  0.00    +0.000 C 
ATOM      8  C   LIG    1        0.002  -0.004   0.002  0.00  0.00    -0.010 C 
ENDBRANCH   6   8
ENDBRANCH   5   6
ENDBRANCH   4   5
ENDBRANCH   3   4
ENDBRANCH   2   3
ENDBRANCH   1   2
BRANCH   1   9
ATOM      9  C   LIG    1        2.929  -6.567  -5.058  0.00  0.00    +0.250 C 
BRANCH   9  10
ATOM     10  N   LIG    1        2.949  -8.036  -5.066  0.00  0.00    -0.360 N 
ATOM     11  C   LIG    1        1.575  -8.544  -5.177  0.00  0.00    +0.310 C 
ATOM     12  H   LIG    1        3.364  -8.371  -4.210  0.00  0.00    +0.420 HD
BRANCH  10  13
ATOM     13  C   LIG    1        3.739  -8.509  -6.211  0.00  0.00    +0.090 C 
ATOM     14  C   LIG    1        5.074  -9.194  -5.913  0.00  0.00    +0.100 C 
ATOM     15  C   LIG    1        3.880 -10.021  -6.396  0.00  0.00    +0.100 C 
ENDBRANCH  10  13
ENDBRANCH   9  10
ENDBRANCH   1   9
TORSDOF 9
ENDMDL
MODEL      127
REMARK  Name = ZINC001201917779
REMARK                            x       y       z     vdW  Elec       q    Type
REMARK                         _______ _______ _______ _____ _____    ______ ____
ROOT
ATOM      1  N   LIG    1        2.600  -6.366  -4.000  0.00  0.00    -0.380 N 
ATOM      2  H   LIG    1        3.057  -6.809  -3.216  0.00  0.00    +0.420 HD
ENDROOT
BRANCH   1   3
ATOM      3  C   LIG    1        1.169  -6.702  -3.986  0.00  0.00    +0.240 C 
ATOM      4  C   LIG    1        0.460  -5.958  -5.119  0.00  0.00    +0.080 C 
ENDBRANCH   1   3
BRANCH   1   5
ATOM      5  C   LIG    1        2.762  -4.910  -3.902  0.00  0.00    +0.240 C 
BRANCH   5   6
ATOM      6  C   LIG    1        2.246  -4.429  -2.545  0.00  0.00    +0.030 C 
BRANCH   6   7
ATOM      7  C   LIG    1        2.415  -2.911  -2.443  0.00  0.00    +0.020 C 
BRANCH   7   8
ATOM      8  C   LIG    1        1.900  -2.430  -1.085  0.00  0.00    +0.020 C 
BRANCH   8   9
ATOM      9  C   LIG    1        2.069  -0.913  -0.984  0.00  0.00    +0.000 C 
BRANCH   9  11
ATOM     10  C   LIG    1        1.722   1.085   0.475  0.00  0.00    +0.000 C 
ATOM     11  C   LIG    1        1.553  -0.432   0.374  0.00  0.00    -0.010 C 
ENDBRANCH   9  11
ENDBRANCH   8   9
ENDBRANCH   7   8
ENDBRANCH   6   7
ENDBRANCH   5   6
ENDBRANCH   1   5
BRANCH   1  12
ATOM     12  C   LIG    1        3.202  -6.843  -5.252  0.00  0.00    +0.280 C 
BRANCH  12  13
ATOM     13  C   LIG    1        3.148  -8.372  -5.293  0.00  0.00    -0.090 C 
ATOM     14  C   LIG    1        2.273  -9.019  -6.370  0.00  0.00    +0.050 C 
ATOM     15  C   LIG    1        3.798  -9.069  -6.490  0.00  0.00    +0.070 C 
ENDBRANCH  12  13
ENDBRANCH   1  12
TORSDOF 9
ENDMDL
MODEL      128
REMARK  Name = ZINC001202115494
REMARK                            x       y       z     vdW  Elec       q    Type
REMARK                         _______ _______ _______ _____ _____    ______ ____
ROOT
ATOM      1  N   LIG    1        1.509  -1.640   0.834  0.00  0.00    -0.380 N 
ATOM      2  H   LIG    1        1.563  -1.074   1.667  0.00  0.00    +0.420 HD
ENDROOT
BRANCH   1   3
ATOM      3  C   LIG    1        0.418  -2.614   0.973  0.00  0.00    +0.060 C 
ATOM      4  C   LIG    1       -0.896  -1.978   0.514  0.00  0.00    +0.100 C 
ATOM      5  C   LIG    1        0.295  -3.036   2.438  0.00  0.00    +0.080 C 
ATOM      6  C   LIG    1        0.718  -3.842   0.111  0.00  0.00    +0.090 C 
ENDBRANCH   1   3
BRANCH   1   7
ATOM      7  C   LIG    1        1.250  -0.778  -0.327  0.00  0.00    +0.300 C 
BRANCH   7   9
ATOM      8  C   LIG    1        0.700   1.593  -0.129  0.00  0.00    +0.130 C 
ATOM      9  C   LIG    1        0.338   0.351   0.079  0.00  0.00    -0.110 C 
ENDBRANCH   7   9
ENDBRANCH   1   7
BRANCH   1  10
ATOM     10  C   LIG    1        2.779  -2.352   0.642  0.00  0.00    +0.240 C 
BRANCH  10  11
ATOM     11  C   LIG    1        3.106  -3.160   1.899  0.00  0.00    +0.040 C 
BRANCH  11  12
ATOM     12  C   LIG    1        4.502  -3.771   1.764  0.00  0.00    -0.060 C 
ATOM     13  C   LIG    1        4.539  -4.692   0.542  0.00  0.00    +0.020 C 
ATOM     14  C   LIG    1        4.829  -4.579   3.021  0.00  0.00    +0.040 C 
ATOM     15  C   LIG    1        5.534  -2.655   1.592  0.00  0.00    +0.030 C 
ENDBRANCH  11  12
ENDBRANCH  10  11
ENDBRANCH   1  10
TORSDOF 6
ENDMDL
MODEL      129
REMARK  Name = ZINC000675552987
REMARK                            x       y       z     vdW  Elec       q    Type
REMARK                         _______ _______ _______ _____ _____    ______ ____
ROOT
ATOM      1  N   LIG    1       -2.728  -3.127   1.017  0.00  0.00    -0.390 N 
ATOM      2  H   LIG    1       -2.763  -3.485   1.960  0.00  0.00    +0.420 HD
ENDROOT
BRANCH   1   3
ATOM      3  C   LIG    1       -1.739  -2.043   0.941  0.00  0.00    +0.250 C 
BRANCH   3   4
ATOM      4  C   LIG    1       -0.358  -2.586   1.314  0.00  0.00    +0.060 C 
BRANCH   4   6
ATOM      5  C   LIG    1        1.392  -1.208   2.314  0.00  0.00    +0.060 C 
ATOM      6  C   LIG    1        0.651  -1.468   1.265  0.00  0.00    -0.060 C 
ENDBRANCH   4   6
ENDBRANCH   3   4
ENDBRANCH   1   3
BRANCH   1   7
ATOM      7  C   LIG    1       -4.050  -2.610   0.640  0.00  0.00    +0.250 C 
BRANCH   7   8
ATOM      8  C   LIG    1       -4.485  -1.540   1.643  0.00  0.00    -0.080 C 
ATOM      9  C   LIG    1       -3.881  -1.851   3.014  0.00  0.00    +0.030 C 
ATOM     10  C   LIG    1       -6.011  -1.530   1.749  0.00  0.00    +0.070 C 
ATOM     11  C   LIG    1       -3.998  -0.169   1.170  0.00  0.00    +0.050 C 
ENDBRANCH   7   8
ENDBRANCH   1   7
BRANCH   1  12
ATOM     12  C   LIG    1       -2.343  -4.206   0.097  0.00  0.00    +0.240 C 
BRANCH  12  13
ATOM     13  C   LIG    1       -3.314  -5.378   0.252  0.00  0.00    -0.030 C 
ATOM     14  C   LIG    1       -3.240  -5.916   1.682  0.00  0.00    +0.040 C 
ATOM     15  C   LIG    1       -2.934  -6.488  -0.731  0.00  0.00    +0.070 C 
ENDBRANCH  12  13
ENDBRANCH   1  12
TORSDOF 7
ENDMDL
MODEL      130
REMARK  Name = ZINC000676042206
REMARK                            x       y       z     vdW  Elec       q    Type
REMARK                         _______ _______ _______ _____ _____    ______ ____
ROOT
ATOM      1  N   LIG    1        2.652  -2.434   1.145  0.00  0.00    -0.390 N 
ATOM      2  C   LIG    1        2.721  -3.302  -0.050  0.00  0.00    +0.250 C 
ATOM      3  C   LIG    1        3.477  -4.568   0.425  0.00  0.00    +0.080 C 
ATOM      4  C   LIG    1        2.932  -4.737   1.867  0.00  0.00    +0.070 C 
ATOM      5  C   LIG    1        2.760  -3.283   2.346  0.00  0.00    +0.160 C 
ATOM      6  H   LIG    1        3.412  -1.771   1.128  0.00  0.00    +0.420 HD
ENDROOT
BRANCH   1   7
ATOM      7  C   LIG    1        1.370  -1.717   1.161  0.00  0.00    +0.260 C 
BRANCH   7   8
ATOM      8  C   LIG    1        1.317  -0.740  -0.015  0.00  0.00    +0.070 C 
BRANCH   8  10
ATOM      9  C   LIG    1       -0.016   1.306   0.009  0.00  0.00    +0.060 C 
ATOM     10  C   LIG    1        0.002  -0.004   0.002  0.00  0.00    -0.060 C 
ENDBRANCH   8  10
ENDBRANCH   7   8
ENDBRANCH   1   7
BRANCH   5  11
ATOM     11  C   LIG    1        3.976  -2.861   3.173  0.00  0.00    +0.060 C 
BRANCH  11  12
ATOM     12  C   LIG    1        3.757  -1.448   3.717  0.00  0.00    +0.010 C 
BRANCH  12  13
ATOM     13  C   LIG    1        4.973  -1.026   4.544  0.00  0.00    +0.020 C 
BRANCH  13  14
ATOM     14  C   LIG    1        4.754   0.387   5.088  0.00  0.00    -0.010 C 
ATOM     15  C   LIG    1        5.970   0.810   5.915  0.00  0.00    +0.020 C 
ENDBRANCH  13  14
ENDBRANCH  12  13
ENDBRANCH  11  12
ENDBRANCH   5  11
TORSDOF 7
ENDMDL
MODEL      131
REMARK  Name = ZINC000676041885
REMARK                            x       y       z     vdW  Elec       q    Type
REMARK                         _______ _______ _______ _____ _____    ______ ____
ROOT
ATOM      1  N   LIG    1       -1.774  -1.007  -1.377  0.00  0.00    -0.390 N 
ATOM      2  C   LIG    1       -2.321   0.127  -2.152  0.00  0.00    +0.250 C 
ATOM      3  C   LIG    1       -3.380  -0.507  -3.088  0.00  0.00    +0.080 C 
ATOM      4  C   LIG    1       -3.992  -1.600  -2.173  0.00  0.00    +0.070 C 
ATOM      5  C   LIG    1       -2.781  -2.083  -1.353  0.00  0.00    +0.160 C 
ATOM      6  H   LIG    1       -0.929  -1.342  -1.815  0.00  0.00    +0.430 HD
ENDROOT
BRANCH   1   7
ATOM      7  C   LIG    1       -1.482  -0.572  -0.004  0.00  0.00    +0.300 C 
BRANCH   7   9
ATOM      8  C   LIG    1       -0.662   1.727  -0.036  0.00  0.00    +0.110 C 
ATOM      9  C   LIG    1       -0.374   0.449  -0.026  0.00  0.00    -0.190 C 
ATOM     10  C   LIG    1        1.065   0.000  -0.036  0.00  0.00    +0.090 C 
ENDBRANCH   7   9
ENDBRANCH   1   7
BRANCH   5  11
ATOM     11  C   LIG    1       -3.209  -2.369   0.088  0.00  0.00    +0.040 C 
BRANCH  11  12
ATOM     12  C   LIG    1       -4.232  -3.507   0.101  0.00  0.00    +0.020 C 
BRANCH  12  13
ATOM     13  C   LIG    1       -4.748  -3.713   1.526  0.00  0.00    +0.010 C 
BRANCH  13  14
ATOM     14  C   LIG    1       -5.771  -4.851   1.539  0.00  0.00    -0.010 C 
ATOM     15  C   LIG    1       -6.287  -5.057   2.964  0.00  0.00    +0.020 C 
ENDBRANCH  13  14
ENDBRANCH  12  13
ENDBRANCH  11  12
ENDBRANCH   5  11
TORSDOF 6
ENDMDL
MODEL      132
REMARK  Name = ZINC000676041868
REMARK                            x       y       z     vdW  Elec       q    Type
REMARK                         _______ _______ _______ _____ _____    ______ ____
ROOT
ATOM      1  N   LIG    1       -1.665  -1.122  -1.368  0.00  0.00    -0.390 N 
ATOM      2  C   LIG    1       -1.982   0.109  -2.122  0.00  0.00    +0.250 C 
ATOM      3  C   LIG    1       -3.145  -0.293  -3.064  0.00  0.00    +0.080 C 
ATOM      4  C   LIG    1       -3.956  -1.262  -2.164  0.00  0.00    +0.070 C 
ATOM      5  C   LIG    1       -2.861  -1.984  -1.357  0.00  0.00    +0.160 C 
ATOM      6  H   LIG    1       -0.901  -1.607  -1.815  0.00  0.00    +0.420 HD
ENDROOT
BRANCH   1   7
ATOM      7  C   LIG    1       -1.293  -0.775   0.010  0.00  0.00    +0.300 C 
BRANCH   7   9
ATOM      8  C   LIG    1       -0.016   1.306   0.009  0.00  0.00    +0.110 C 
ATOM      9  C   LIG    1        0.002  -0.004   0.002  0.00  0.00    -0.190 C 
ATOM     10  C   LIG    1        1.317  -0.740  -0.015  0.00  0.00    +0.090 C 
ENDBRANCH   7   9
ENDBRANCH   1   7
BRANCH   5  11
ATOM     11  C   LIG    1       -2.537  -3.331  -2.007  0.00  0.00    +0.060 C 
BRANCH  11  12
ATOM     12  C   LIG    1       -1.514  -4.078  -1.150  0.00  0.00    +0.010 C 
BRANCH  12  13
ATOM     13  C   LIG    1       -1.190  -5.425  -1.800  0.00  0.00    +0.020 C 
BRANCH  13  14
ATOM     14  C   LIG    1       -0.167  -6.172  -0.943  0.00  0.00    -0.010 C 
ATOM     15  C   LIG    1        0.157  -7.519  -1.593  0.00  0.00    +0.020 C 
ENDBRANCH  13  14
ENDBRANCH  12  13
ENDBRANCH  11  12
ENDBRANCH   5  11
TORSDOF 6
ENDMDL
MODEL      133
REMARK  Name = ZINC000676042208
REMARK                            x       y       z     vdW  Elec       q    Type
REMARK                         _______ _______ _______ _____ _____    ______ ____
ROOT
ATOM      1  N   LIG    1        2.587  -2.566   1.085  0.00  0.00    -0.390 N 
ATOM      2  C   LIG    1        2.668  -3.621   0.052  0.00  0.00    +0.250 C 
ATOM      3  C   LIG    1        3.540  -4.732   0.690  0.00  0.00    +0.080 C 
ATOM      4  C   LIG    1        3.075  -4.684   2.169  0.00  0.00    +0.070 C 
ATOM      5  C   LIG    1        2.816  -3.184   2.403  0.00  0.00    +0.160 C 
ATOM      6  H   LIG    1        3.294  -1.866   0.911  0.00  0.00    +0.420 HD
ENDROOT
BRANCH   1   7
ATOM      7  C   LIG    1        1.257  -1.944   1.053  0.00  0.00    +0.250 C 
BRANCH   7   8
ATOM      8  C   LIG    1        1.066  -1.214  -0.277  0.00  0.00    +0.070 C 
BRANCH   8  10
ATOM      9  C   LIG    1       -0.418   0.707  -0.544  0.00  0.00    +0.060 C 
ATOM     10  C   LIG    1       -0.299  -0.577  -0.309  0.00  0.00    -0.060 C 
ENDBRANCH   8  10
ENDBRANCH   7   8
ENDBRANCH   1   7
BRANCH   5  11
ATOM     11  C   LIG    1        1.581  -3.001   3.289  0.00  0.00    +0.040 C 
BRANCH  11  12
ATOM     12  C   LIG    1        1.844  -3.621   4.663  0.00  0.00    +0.020 C 
BRANCH  12  13
ATOM     13  C   LIG    1        0.571  -3.543   5.508  0.00  0.00    +0.010 C 
BRANCH  13  14
ATOM     14  C   LIG    1        0.833  -4.163   6.883  0.00  0.00    -0.010 C 
ATOM     15  C   LIG    1       -0.440  -4.086   7.728  0.00  0.00    +0.020 C 
ENDBRANCH  13  14
ENDBRANCH  12  13
ENDBRANCH  11  12
ENDBRANCH   5  11
TORSDOF 7
ENDMDL
MODEL      134
REMARK  Name = ZINC001167477279
REMARK                            x       y       z     vdW  Elec       q    Type
REMARK                         _______ _______ _______ _____ _____    ______ ____
ROOT
ATOM      1  N   LIG    1        2.212  -6.013  -3.799  0.00  0.00    -0.390 N 
ATOM      2  C   LIG    1        0.834  -6.528  -3.942  0.00  0.00    +0.260 C 
ATOM      3  C   LIG    1        0.666  -6.796  -5.458  0.00  0.00    -0.010 C 
ATOM      4  C   LIG    1        2.074  -7.323  -5.841  0.00  0.00    +0.070 C 
ATOM      5  C   LIG    1       -0.405  -7.858  -5.713  0.00  0.00    +0.070 C 
ATOM      6  C   LIG    1        3.010  -6.492  -4.943  0.00  0.00    +0.160 C 
ATOM      7  C   LIG    1        3.566  -5.303  -5.729  0.00  0.00    +0.080 C 
ATOM      8  H   LIG    1        2.614  -6.353  -2.938  0.00  0.00    +0.420 HD
ENDROOT
BRANCH   1   9
ATOM      9  C   LIG    1        2.192  -4.544  -3.791  0.00  0.00    +0.240 C 
BRANCH   9  10
ATOM     10  C   LIG    1        1.476  -4.051  -2.532  0.00  0.00    +0.020 C 
BRANCH  10  11
ATOM     11  C   LIG    1        1.455  -2.521  -2.524  0.00  0.00    +0.020 C 
BRANCH  11  12
ATOM     12  C   LIG    1        0.739  -2.027  -1.265  0.00  0.00    +0.020 C 
BRANCH  12  13
ATOM     13  C   LIG    1        0.718  -0.497  -1.257  0.00  0.00    +0.000 C 
BRANCH  13  15
ATOM     14  C   LIG    1       -0.019   1.526   0.010  0.00  0.00    +0.000 C 
ATOM     15  C   LIG    1        0.002  -0.004   0.002  0.00  0.00    -0.010 C 
ENDBRANCH  13  15
ENDBRANCH  12  13
ENDBRANCH  11  12
ENDBRANCH  10  11
ENDBRANCH   9  10
ENDBRANCH   1   9
TORSDOF 6
ENDMDL
MODEL      135
REMARK  Name = ZINC001167477280
REMARK                            x       y       z     vdW  Elec       q    Type
REMARK                         _______ _______ _______ _____ _____    ______ ____
ROOT
ATOM      1  N   LIG    1        2.212  -6.013  -3.799  0.00  0.00    -0.390 N 
ATOM      2  C   LIG    1        0.834  -6.528  -3.942  0.00  0.00    +0.250 C 
ATOM      3  C   LIG    1        0.974  -7.794  -4.823  0.00  0.00    +0.000 C 
ATOM      4  C   LIG    1        2.087  -7.364  -5.815  0.00  0.00    +0.070 C 
ATOM      5  C   LIG    1       -0.332  -8.096  -5.562  0.00  0.00    +0.070 C 
ATOM      6  C   LIG    1        3.010  -6.492  -4.943  0.00  0.00    +0.160 C 
ATOM      7  C   LIG    1        3.525  -5.304  -5.757  0.00  0.00    +0.080 C 
ATOM      8  H   LIG    1        2.614  -6.353  -2.938  0.00  0.00    +0.420 HD
ENDROOT
BRANCH   1   9
ATOM      9  C   LIG    1        2.192  -4.544  -3.791  0.00  0.00    +0.250 C 
BRANCH   9  10
ATOM     10  C   LIG    1        1.476  -4.051  -2.532  0.00  0.00    +0.010 C 
BRANCH  10  11
ATOM     11  C   LIG    1        1.455  -2.521  -2.524  0.00  0.00    +0.020 C 
BRANCH  11  12
ATOM     12  C   LIG    1        0.739  -2.027  -1.265  0.00  0.00    +0.020 C 
BRANCH  12  13
ATOM     13  C   LIG    1        0.718  -0.497  -1.257  0.00  0.00    +0.000 C 
BRANCH  13  15
ATOM     14  C   LIG    1       -0.019   1.526   0.010  0.00  0.00    +0.000 C 
ATOM     15  C   LIG    1        0.002  -0.004   0.002  0.00  0.00    -0.010 C 
ENDBRANCH  13  15
ENDBRANCH  12  13
ENDBRANCH  11  12
ENDBRANCH  10  11
ENDBRANCH   9  10
ENDBRANCH   1   9
TORSDOF 6
ENDMDL
MODEL      136
REMARK  Name = ZINC001167505525
REMARK                            x       y       z     vdW  Elec       q    Type
REMARK                         _______ _______ _______ _____ _____    ______ ____
ROOT
ATOM      1  C   LIG    1        2.213  -6.074  -3.800  0.00  0.00    +0.250 C 
ENDROOT
BRANCH   1   2
ATOM      2  N   LIG    1        2.900  -6.548  -5.008  0.00  0.00    -0.380 N 
ATOM      3  C   LIG    1        4.311  -6.140  -4.961  0.00  0.00    +0.310 C 
ATOM      4  H   LIG    1        2.462  -6.147  -5.824  0.00  0.00    +0.420 HD
BRANCH   2   5
ATOM      5  C   LIG    1        2.816  -8.012  -5.077  0.00  0.00    +0.150 C 
ATOM      6  C   LIG    1        1.492  -8.526  -5.668  0.00  0.00    +0.050 C 
ATOM      7  C   LIG    1        2.324  -9.589  -6.405  0.00  0.00    +0.060 C 
ATOM      8  C   LIG    1        3.509  -8.612  -6.312  0.00  0.00    +0.050 C 
ENDBRANCH   2   5
ENDBRANCH   1   2
BRANCH   1   9
ATOM      9  C   LIG    1        2.192  -4.544  -3.791  0.00  0.00    +0.030 C 
BRANCH   9  10
ATOM     10  C   LIG    1        1.476  -4.051  -2.532  0.00  0.00    +0.020 C 
BRANCH  10  11
ATOM     11  C   LIG    1        1.455  -2.521  -2.524  0.00  0.00    +0.020 C 
BRANCH  11  12
ATOM     12  C   LIG    1        0.739  -2.027  -1.265  0.00  0.00    +0.000 C 
BRANCH  12  13
ATOM     13  C   LIG    1        0.718  -0.497  -1.257  0.00  0.00    +0.000 C 
BRANCH  13  15
ATOM     14  C   LIG    1       -0.019   1.526   0.010  0.00  0.00    +0.000 C 
ATOM     15  C   LIG    1        0.002  -0.004   0.002  0.00  0.00    -0.010 C 
ENDBRANCH  13  15
ENDBRANCH  12  13
ENDBRANCH  11  12
ENDBRANCH  10  11
ENDBRANCH   9  10
ENDBRANCH   1   9
TORSDOF 8
ENDMDL
MODEL      137
REMARK  Name = ZINC000778960057
REMARK                            x       y       z     vdW  Elec       q    Type
REMARK                         _______ _______ _______ _____ _____    ______ ____
ROOT
ATOM      1  N   LIG    1        2.212  -6.013  -3.799  0.00  0.00    -0.380 N 
ATOM      2  C   LIG    1        2.797  -6.491  -5.062  0.00  0.00    +0.270 C 
ATOM      3  C   LIG    1        2.582  -8.003  -5.157  0.00  0.00    +0.130 C 
ATOM      4  C   LIG    1        3.025  -8.657  -3.877  0.00  0.00    -0.020 C 
ATOM      5  C   LIG    1        3.219  -7.985  -2.779  0.00  0.00    +0.030 C 
ATOM      6  F   LIG    1        3.611  -8.658  -1.675  0.00  0.00    -0.120 F 
ATOM      7  C   LIG    1        3.027  -6.499  -2.680  0.00  0.00    +0.320 C 
ATOM      8  H   LIG    1        1.270  -6.364  -3.709  0.00  0.00    +0.430 HD
ENDROOT
BRANCH   1   9
ATOM      9  C   LIG    1        2.192  -4.544  -3.791  0.00  0.00    +0.260 C 
BRANCH   9  10
ATOM     10  C   LIG    1        1.476  -4.051  -2.532  0.00  0.00    +0.030 C 
BRANCH  10  11
ATOM     11  C   LIG    1        1.455  -2.521  -2.524  0.00  0.00    +0.020 C 
BRANCH  11  12
ATOM     12  C   LIG    1        0.739  -2.027  -1.265  0.00  0.00    +0.020 C 
BRANCH  12  13
ATOM     13  C   LIG    1        0.718  -0.497  -1.257  0.00  0.00    +0.000 C 
BRANCH  13  15
ATOM     14  C   LIG    1       -0.019   1.526   0.010  0.00  0.00    +0.000 C 
ATOM     15  C   LIG    1        0.002  -0.004   0.002  0.00  0.00    -0.010 C 
ENDBRANCH  13  15
ENDBRANCH  12  13
ENDBRANCH  11  12
ENDBRANCH  10  11
ENDBRANCH   9  10
ENDBRANCH   1   9
TORSDOF 6
ENDMDL
MODEL      138
REMARK  Name = ZINC000785661750
REMARK                            x       y       z     vdW  Elec       q    Type
REMARK                         _______ _______ _______ _____ _____    ______ ____
ROOT
ATOM      1  N   LIG    1        3.922  -4.987   3.430  0.00  0.00    -0.380 N 
ATOM      2  H   LIG    1        3.055  -5.502   3.464  0.00  0.00    +0.420 HD
ENDROOT
BRANCH   1   3
ATOM      3  C   LIG    1        3.984  -4.058   4.566  0.00  0.00    +0.160 C 
ATOM      4  C   LIG    1        5.277  -3.242   4.487  0.00  0.00    +0.080 C 
ATOM      5  C   LIG    1        3.960  -4.849   5.875  0.00  0.00    +0.080 C 
ENDBRANCH   1   3
BRANCH   1   6
ATOM      6  C   LIG    1        3.993  -4.231   2.173  0.00  0.00    +0.240 C 
BRANCH   6   7
ATOM      7  C   LIG    1        2.744  -3.358   2.031  0.00  0.00    +0.030 C 
BRANCH   7   8
ATOM      8  C   LIG    1        2.862  -2.501   0.770  0.00  0.00    +0.020 C 
BRANCH   8   9
ATOM      9  C   LIG    1        1.613  -1.628   0.628  0.00  0.00    +0.020 C 
BRANCH   9  10
ATOM     10  C   LIG    1        1.730  -0.770  -0.633  0.00  0.00    +0.050 C 
BRANCH  10  12
ATOM     11  C   LIG    1        0.618   1.389  -0.886  0.00  0.00    +0.020 C 
ATOM     12  C   LIG    1        0.500   0.089  -0.772  0.00  0.00    -0.060 C 
ENDBRANCH  10  12
ENDBRANCH   9  10
ENDBRANCH   8   9
ENDBRANCH   7   8
ENDBRANCH   6   7
ENDBRANCH   1   6
BRANCH   1  13
ATOM     13  C   LIG    1        5.051  -5.924   3.502  0.00  0.00    +0.290 C 
BRANCH  13  14
ATOM     14  C   LIG    1        4.721  -7.036   4.464  0.00  0.00    -0.100 C 
ATOM     15  C   LIG    1        4.770  -8.283   4.066  0.00  0.00    +0.130 C 
ENDBRANCH  13  14
ENDBRANCH   1  13
TORSDOF 9
ENDMDL
MODEL      139
REMARK  Name = ZINC000678270489
REMARK                            x       y       z     vdW  Elec       q    Type
REMARK                         _______ _______ _______ _____ _____    ______ ____
ROOT
ATOM      1  N   LIG    1        4.143  -5.127   3.433  0.00  0.00    -0.380 N 
ATOM      2  C   LIG    1        4.134  -4.375   4.695  0.00  0.00    +0.310 C 
ATOM      3  H   LIG    1        3.340  -5.737   3.399  0.00  0.00    +0.420 HD
ENDROOT
BRANCH   1   4
ATOM      4  C   LIG    1        5.371  -5.928   3.349  0.00  0.00    +0.160 C 
ATOM      5  C   LIG    1        5.386  -7.015   4.453  0.00  0.00    +0.050 C 
ATOM      6  C   LIG    1        6.347  -8.080   3.871  0.00  0.00    +0.050 C 
ATOM      7  C   LIG    1        6.026  -8.097   2.362  0.00  0.00    +0.030 C 
ATOM      8  C   LIG    1        5.405  -6.728   2.030  0.00  0.00    +0.040 C 
ENDBRANCH   1   4
BRANCH   1   9
ATOM      9  C   LIG    1        4.093  -4.188   2.304  0.00  0.00    +0.250 C 
BRANCH   9  10
ATOM     10  C   LIG    1        2.757  -3.441   2.321  0.00  0.00    +0.030 C 
BRANCH  10  11
ATOM     11  C   LIG    1        2.705  -2.464   1.145  0.00  0.00    +0.020 C 
BRANCH  11  12
ATOM     12  C   LIG    1        1.370  -1.717   1.161  0.00  0.00    +0.020 C 
BRANCH  12  13
ATOM     13  C   LIG    1        1.317  -0.740  -0.015  0.00  0.00    +0.050 C 
BRANCH  13  15
ATOM     14  C   LIG    1       -0.016   1.306   0.009  0.00  0.00    +0.020 C 
ATOM     15  C   LIG    1        0.002  -0.004   0.002  0.00  0.00    -0.060 C 
ENDBRANCH  13  15
ENDBRANCH  12  13
ENDBRANCH  11  12
ENDBRANCH  10  11
ENDBRANCH   9  10
ENDBRANCH   1   9
TORSDOF 7
ENDMDL
MODEL      140
REMARK  Name = ZINC000678623739
REMARK                            x       y       z     vdW  Elec       q    Type
REMARK                         _______ _______ _______ _____ _____    ______ ____
ROOT
ATOM      1  N   LIG    1        1.625  -0.926   1.157  0.00  0.00    -0.380 N 
ATOM      2  H   LIG    1        0.883  -1.322   1.715  0.00  0.00    +0.420 HD
ENDROOT
BRANCH   1   3
ATOM      3  C   LIG    1        2.708  -1.908   1.014  0.00  0.00    +0.160 C 
ATOM      4  C   LIG    1        3.250  -2.275   2.398  0.00  0.00    +0.040 C 
ATOM      5  C   LIG    1        4.378  -3.298   2.249  0.00  0.00    +0.030 C 
ATOM      6  C   LIG    1        3.839  -4.555   1.563  0.00  0.00    +0.020 C 
ATOM      7  C   LIG    1        3.298  -4.188   0.179  0.00  0.00    +0.030 C 
ATOM      8  C   LIG    1        2.170  -3.165   0.328  0.00  0.00    +0.040 C 
ENDBRANCH   1   3
BRANCH   1   9
ATOM      9  C   LIG    1        2.142   0.281   1.816  0.00  0.00    +0.240 C 
ATOM     10  C   LIG    1        0.993   1.261   2.060  0.00  0.00    +0.080 C 
ENDBRANCH   1   9
BRANCH   1  11
ATOM     11  C   LIG    1        1.105  -0.574  -0.171  0.00  0.00    +0.290 C 
BRANCH  11  13
ATOM     12  C   LIG    1        2.933  -0.679  -1.787  0.00  0.00    +0.110 C 
ATOM     13  C   LIG    1        2.202   0.059  -0.988  0.00  0.00    -0.180 C 
BRANCH  13  14
ATOM     14  C   LIG    1        2.458   1.540  -0.887  0.00  0.00    +0.060 C 
ATOM     15  C   LIG    1        1.540   2.284  -1.859  0.00  0.00    +0.040 C 
ENDBRANCH  13  14
ENDBRANCH  11  13
ENDBRANCH   1  11
TORSDOF 5
ENDMDL
MODEL      141
REMARK  Name = ZINC000678623273
REMARK                            x       y       z     vdW  Elec       q    Type
REMARK                         _______ _______ _______ _____ _____    ______ ____
ROOT
ATOM      1  N   LIG    1        1.515  -1.105   1.566  0.00  0.00    -0.380 N 
ATOM      2  C   LIG    1        1.425  -0.238   2.748  0.00  0.00    +0.310 C 
ATOM      3  H   LIG    1        1.259  -0.579   0.743  0.00  0.00    +0.420 HD
ENDROOT
BRANCH   1   4
ATOM      4  C   LIG    1        2.891  -1.598   1.423  0.00  0.00    +0.160 C 
ATOM      5  C   LIG    1        3.813  -0.445   1.130  0.00  0.00    +0.030 C 
ATOM      6  C   LIG    1        4.974  -0.841   0.198  0.00  0.00    +0.030 C 
ATOM      7  C   LIG    1        5.578  -2.215   0.546  0.00  0.00    +0.000 C 
ATOM      8  C   LIG    1        5.726  -2.420   2.029  0.00  0.00    +0.030 C 
ATOM      9  C   LIG    1        4.475  -3.157   2.549  0.00  0.00    +0.020 C 
ATOM     10  C   LIG    1        3.342  -2.263   2.739  0.00  0.00    +0.040 C 
ENDBRANCH   1   4
BRANCH   1  11
ATOM     11  C   LIG    1        0.601  -2.244   1.723  0.00  0.00    +0.300 C 
BRANCH  11  13
ATOM     12  C   LIG    1        1.343  -4.113   0.339  0.00  0.00    +0.110 C 
ATOM     13  C   LIG    1        0.582  -3.053   0.452  0.00  0.00    -0.190 C 
BRANCH  13  14
ATOM     14  C   LIG    1       -0.312  -2.642  -0.689  0.00  0.00    +0.060 C 
ATOM     15  C   LIG    1       -1.716  -3.207  -0.466  0.00  0.00    +0.040 C 
ENDBRANCH  13  14
ENDBRANCH  11  13
ENDBRANCH   1  11
TORSDOF 4
ENDMDL
MODEL      142
REMARK  Name = ZINC000678624892
REMARK                            x       y       z     vdW  Elec       q    Type
REMARK                         _______ _______ _______ _____ _____    ______ ____
ROOT
ATOM      1  N   LIG    1        0.993  -1.126   1.426  0.00  0.00    -0.370 N 
ATOM      2  H   LIG    1        0.671  -0.879   2.350  0.00  0.00    +0.420 HD
ENDROOT
BRANCH   1   3
ATOM      3  C   LIG    1        2.442  -1.365   1.460  0.00  0.00    +0.160 C 
ATOM      4  C   LIG    1        3.192  -0.085   1.906  0.00  0.00    +0.040 C 
ATOM      5  C   LIG    1        4.525  -0.645   2.461  0.00  0.00    +0.050 C 
ATOM      6  C   LIG    1        4.117  -1.948   3.180  0.00  0.00    +0.030 C 
ATOM      7  C   LIG    1        2.793  -2.405   2.543  0.00  0.00    +0.050 C 
ENDBRANCH   1   3
BRANCH   1   8
ATOM      8  C   LIG    1        0.306  -2.345   0.978  0.00  0.00    +0.150 C 
ATOM      9  C   LIG    1        0.471  -3.440   2.033  0.00  0.00    +0.080 C 
ATOM     10  C   LIG    1        0.914  -2.816  -0.345  0.00  0.00    +0.080 C 
ENDBRANCH   1   8
BRANCH   1  11
ATOM     11  C   LIG    1        0.699  -0.028   0.495  0.00  0.00    +0.290 C 
BRANCH  11  13
ATOM     12  C   LIG    1       -1.207   1.230   1.359  0.00  0.00    +0.120 C 
ATOM     13  C   LIG    1       -0.771   0.296   0.549  0.00  0.00    -0.190 C 
BRANCH  13  14
ATOM     14  C   LIG    1       -1.741  -0.453  -0.328  0.00  0.00    +0.050 C 
ATOM     15  C   LIG    1       -1.843   0.243  -1.686  0.00  0.00    +0.040 C 
ENDBRANCH  13  14
ENDBRANCH  11  13
ENDBRANCH   1  11
TORSDOF 5
ENDMDL
MODEL      143
REMARK  Name = ZINC000678624017
REMARK                            x       y       z     vdW  Elec       q    Type
REMARK                         _______ _______ _______ _____ _____    ______ ____
ROOT
ATOM      1  N   LIG    1        2.705  -2.142   2.044  0.00  0.00    -0.350 N 
ATOM      2  H   LIG    1        2.724  -1.244   2.505  0.00  0.00    +0.410 HD
ENDROOT
BRANCH   1   3
ATOM      3  C   LIG    1        1.992  -3.110   2.888  0.00  0.00    +0.090 C 
ATOM      4  C   LIG    1        1.756  -2.732   4.352  0.00  0.00    +0.090 C 
ATOM      5  C   LIG    1        0.588  -2.734   3.364  0.00  0.00    +0.100 C 
ENDBRANCH   1   3
BRANCH   1   6
ATOM      6  C   LIG    1        2.014  -2.016   0.754  0.00  0.00    +0.300 C 
BRANCH   6   8
ATOM      7  C   LIG    1        0.566  -0.089   1.143  0.00  0.00    +0.100 C 
ATOM      8  C   LIG    1        0.663  -1.384   0.966  0.00  0.00    -0.170 C 
BRANCH   8   9
ATOM      9  C   LIG    1       -0.576  -2.241   0.976  0.00  0.00    +0.060 C 
ATOM     10  C   LIG    1       -1.078  -2.429  -0.457  0.00  0.00    +0.030 C 
ENDBRANCH   8   9
ENDBRANCH   6   8
ENDBRANCH   1   6
BRANCH   1  11
ATOM     11  C   LIG    1        4.080  -2.606   1.821  0.00  0.00    +0.170 C 
BRANCH  11  12
ATOM     12  C   LIG    1        4.964  -1.417   1.438  0.00  0.00    +0.050 C 
ATOM     13  C   LIG    1        5.033  -0.435   2.610  0.00  0.00    +0.040 C 
ENDBRANCH  11  12
BRANCH  11  14
ATOM     14  C   LIG    1        4.093  -3.636   0.689  0.00  0.00    +0.050 C 
ATOM     15  C   LIG    1        3.297  -4.871   1.114  0.00  0.00    +0.030 C 
ENDBRANCH  11  14
ENDBRANCH   1  11
TORSDOF 7
ENDMDL
MODEL      144
REMARK  Name = ZINC000678625039
REMARK                            x       y       z     vdW  Elec       q    Type
REMARK                         _______ _______ _______ _____ _____    ______ ____
ROOT
ATOM      1  N   LIG    1        4.572  -5.108   3.523  0.00  0.00    -0.380 N 
ATOM      2  C   LIG    1        4.574  -4.403   4.811  0.00  0.00    +0.320 C 
ATOM      3  H   LIG    1        3.727  -5.653   3.439  0.00  0.00    +0.420 HD
ENDROOT
BRANCH   1   4
ATOM      4  C   LIG    1        4.633  -4.130   2.429  0.00  0.00    +0.240 C 
BRANCH   4   5
ATOM      5  C   LIG    1        3.359  -3.283   2.430  0.00  0.00    +0.030 C 
BRANCH   5   6
ATOM      6  C   LIG    1        3.423  -2.264   1.291  0.00  0.00    +0.020 C 
BRANCH   6   7
ATOM      7  C   LIG    1        2.148  -1.417   1.291  0.00  0.00    +0.020 C 
BRANCH   7   8
ATOM      8  C   LIG    1        2.212  -0.398   0.152  0.00  0.00    +0.050 C 
BRANCH   8  10
ATOM      9  C   LIG    1        1.038   1.742   0.209  0.00  0.00    +0.020 C 
ATOM     10  C   LIG    1        0.957   0.435   0.153  0.00  0.00    -0.060 C 
ENDBRANCH   8  10
ENDBRANCH   7   8
ENDBRANCH   6   7
ENDBRANCH   5   6
ENDBRANCH   4   5
ENDBRANCH   1   4
BRANCH   1  11
ATOM     11  C   LIG    1        5.738  -5.998   3.450  0.00  0.00    +0.300 C 
BRANCH  11  12
ATOM     12  C   LIG    1        5.656  -6.832   2.197  0.00  0.00    -0.190 C 
ATOM     13  C   LIG    1        6.291  -6.454   1.115  0.00  0.00    +0.110 C 
BRANCH  12  14
ATOM     14  C   LIG    1        4.842  -8.101   2.188  0.00  0.00    +0.060 C 
ATOM     15  C   LIG    1        5.693  -9.255   2.721  0.00  0.00    +0.040 C 
ENDBRANCH  12  14
ENDBRANCH  11  12
ENDBRANCH   1  11
TORSDOF 9
ENDMDL
MODEL      145
REMARK  Name = ZINC000678714664
REMARK                            x       y       z     vdW  Elec       q    Type
REMARK                         _______ _______ _______ _____ _____    ______ ____
ROOT
ATOM      1  N   LIG    1        2.725  -2.631   3.789  0.00  0.00    -0.380 N 
ATOM      2  H   LIG    1        3.373  -1.862   3.876  0.00  0.00    +0.420 HD
ENDROOT
BRANCH   1   3
ATOM      3  C   LIG    1        2.814  -3.197   2.437  0.00  0.00    +0.160 C 
ATOM      4  C   LIG    1        1.944  -4.452   2.351  0.00  0.00    +0.090 C 
BRANCH   3   5
ATOM      5  C   LIG    1        4.268  -3.562   2.131  0.00  0.00    +0.050 C 
BRANCH   5   6
ATOM      6  C   LIG    1        5.115  -2.289   2.087  0.00  0.00    +0.010 C 
BRANCH   6   7
ATOM      7  C   LIG    1        6.583  -2.661   1.865  0.00  0.00    +0.060 C 
BRANCH   7   9
ATOM      8  C   LIG    1        8.441  -1.273   2.629  0.00  0.00    +0.020 C 
ATOM      9  C   LIG    1        7.418  -1.407   1.822  0.00  0.00    -0.060 C 
ENDBRANCH   7   9
ENDBRANCH   6   7
ENDBRANCH   5   6
ENDBRANCH   3   5
ENDBRANCH   1   3
BRANCH   1  10
ATOM     10  C   LIG    1        1.359  -2.149   4.030  0.00  0.00    +0.240 C 
ATOM     11  C   LIG    1        1.060  -0.975   3.095  0.00  0.00    +0.080 C 
ENDBRANCH   1  10
BRANCH   1  12
ATOM     12  C   LIG    1        3.060  -3.666   4.776  0.00  0.00    +0.290 C 
BRANCH  12  13
ATOM     13  C   LIG    1        3.125  -3.049   6.149  0.00  0.00    -0.190 C 
ATOM     14  C   LIG    1        4.391  -2.376   6.614  0.00  0.00    +0.100 C 
ATOM     15  C   LIG    1        2.081  -3.098   6.940  0.00  0.00    +0.110 C 
ENDBRANCH  12  13
ENDBRANCH   1  12
TORSDOF 8
ENDMDL
MODEL      146
REMARK  Name = ZINC000678714665
REMARK                            x       y       z     vdW  Elec       q    Type
REMARK                         _______ _______ _______ _____ _____    ______ ____
ROOT
ATOM      1  N   LIG    1        1.554  -4.348   2.176  0.00  0.00    -0.380 N 
ATOM      2  H   LIG    1        1.495  -5.012   1.418  0.00  0.00    +0.420 HD
ENDROOT
BRANCH   1   3
ATOM      3  C   LIG    1        2.839  -3.638   2.104  0.00  0.00    +0.160 C 
ATOM      4  C   LIG    1        2.974  -2.707   3.311  0.00  0.00    +0.090 C 
BRANCH   3   5
ATOM      5  C   LIG    1        3.983  -4.653   2.112  0.00  0.00    +0.050 C 
BRANCH   5   6
ATOM      6  C   LIG    1        3.889  -5.538   0.867  0.00  0.00    +0.010 C 
BRANCH   6   7
ATOM      7  C   LIG    1        5.104  -6.465   0.807  0.00  0.00    +0.060 C 
BRANCH   7   9
ATOM      8  C   LIG    1        5.996  -7.362  -1.281  0.00  0.00    +0.030 C 
ATOM      9  C   LIG    1        5.011  -7.337  -0.418  0.00  0.00    -0.070 C 
ENDBRANCH   7   9
ENDBRANCH   6   7
ENDBRANCH   5   6
ENDBRANCH   3   5
ENDBRANCH   1   3
BRANCH   1  10
ATOM     10  C   LIG    1        1.458  -5.058   3.458  0.00  0.00    +0.240 C 
ATOM     11  C   LIG    1        0.200  -5.928   3.466  0.00  0.00    +0.080 C 
ENDBRANCH   1  10
BRANCH   1  12
ATOM     12  C   LIG    1        0.454  -3.381   2.067  0.00  0.00    +0.290 C 
BRANCH  12  13
ATOM     13  C   LIG    1        0.470  -2.754   0.697  0.00  0.00    -0.190 C 
ATOM     14  C   LIG    1        1.337  -1.551   0.429  0.00  0.00    +0.100 C 
ATOM     15  C   LIG    1       -0.271  -3.254  -0.261  0.00  0.00    +0.110 C 
ENDBRANCH  12  13
ENDBRANCH   1  12
TORSDOF 8
ENDMDL
MODEL      147
REMARK  Name = ZINC000678715606
REMARK                            x       y       z     vdW  Elec       q    Type
REMARK                         _______ _______ _______ _____ _____    ______ ____
ROOT
ATOM      1  N   LIG    1        1.525  -4.298   1.831  0.00  0.00    -0.390 N 
ATOM      2  C   LIG    1        1.803  -5.358   2.809  0.00  0.00    +0.320 C 
ATOM      3  H   LIG    1        1.030  -4.688   1.043  0.00  0.00    +0.420 HD
ENDROOT
BRANCH   1   4
ATOM      4  C   LIG    1        2.792  -3.712   1.371  0.00  0.00    +0.160 C 
ATOM      5  C   LIG    1        3.611  -3.255   2.580  0.00  0.00    +0.080 C 
BRANCH   4   6
ATOM      6  C   LIG    1        3.583  -4.760   0.585  0.00  0.00    +0.050 C 
BRANCH   6   7
ATOM      7  C   LIG    1        2.783  -5.184  -0.648  0.00  0.00    +0.010 C 
BRANCH   7   8
ATOM      8  C   LIG    1        3.625  -6.135  -1.500  0.00  0.00    +0.070 C 
BRANCH   8  10
ATOM      9  C   LIG    1        3.337  -6.375  -3.913  0.00  0.00    +0.030 C 
ATOM     10  C   LIG    1        2.837  -6.553  -2.715  0.00  0.00    -0.070 C 
ENDBRANCH   8  10
ENDBRANCH   7   8
ENDBRANCH   6   7
ENDBRANCH   4   6
ENDBRANCH   1   4
BRANCH   1  11
ATOM     11  C   LIG    1        0.703  -3.255   2.459  0.00  0.00    +0.250 C 
BRANCH  11  12
ATOM     12  C   LIG    1       -0.678  -3.825   2.790  0.00  0.00    -0.080 C 
ATOM     13  C   LIG    1       -1.143  -4.730   1.647  0.00  0.00    +0.030 C 
ATOM     14  C   LIG    1       -1.673  -2.677   2.970  0.00  0.00    +0.070 C 
ATOM     15  C   LIG    1       -0.597  -4.638   4.084  0.00  0.00    +0.040 C 
ENDBRANCH  11  12
ENDBRANCH   1  11
TORSDOF 7
ENDMDL
MODEL      148
REMARK  Name = ZINC000678716118
REMARK                            x       y       z     vdW  Elec       q    Type
REMARK                         _______ _______ _______ _____ _____    ______ ____
ROOT
ATOM      1  N   LIG    1       -2.806  -2.726  -3.726  0.00  0.00    -0.380 N 
ATOM      2  C   LIG    1       -1.518  -2.044  -3.910  0.00  0.00    +0.310 C 
ATOM      3  H   LIG    1       -3.558  -2.076  -3.893  0.00  0.00    +0.420 HD
ENDROOT
BRANCH   1   4
ATOM      4  C   LIG    1       -2.896  -3.237  -2.352  0.00  0.00    +0.170 C 
ATOM      5  C   LIG    1       -1.823  -4.306  -2.133  0.00  0.00    +0.080 C 
BRANCH   4   6
ATOM      6  C   LIG    1       -4.280  -3.851  -2.126  0.00  0.00    +0.050 C 
BRANCH   6   7
ATOM      7  C   LIG    1       -5.347  -2.762  -2.253  0.00  0.00    +0.010 C 
BRANCH   7   8
ATOM      8  C   LIG    1       -6.730  -3.373  -2.018  0.00  0.00    +0.060 C 
BRANCH   8  10
ATOM      9  C   LIG    1       -8.776  -2.454  -2.981  0.00  0.00    +0.020 C 
ATOM     10  C   LIG    1       -7.781  -2.301  -2.143  0.00  0.00    -0.060 C 
ENDBRANCH   8  10
ENDBRANCH   7   8
ENDBRANCH   6   7
ENDBRANCH   4   6
ENDBRANCH   1   4
BRANCH   1  11
ATOM     11  C   LIG    1       -2.906  -3.845  -4.672  0.00  0.00    +0.240 C 
BRANCH  11  12
ATOM     12  C   LIG    1       -2.921  -3.304  -6.103  0.00  0.00    +0.040 C 
BRANCH  12  13
ATOM     13  C   LIG    1       -3.026  -4.469  -7.088  0.00  0.00    +0.070 C 
BRANCH  13  14
ATOM     14  C   LIG    1       -3.041  -3.936  -8.498  0.00  0.00    -0.070 C 
ATOM     15  C   LIG    1       -2.165  -4.369  -9.371  0.00  0.00    +0.030 C 
ENDBRANCH  13  14
ENDBRANCH  12  13
ENDBRANCH  11  12
ENDBRANCH   1  11
TORSDOF 9
ENDMDL
MODEL      149
REMARK  Name = ZINC000678715485
REMARK                            x       y       z     vdW  Elec       q    Type
REMARK                         _______ _______ _______ _____ _____    ______ ____
ROOT
ATOM      1  N   LIG    1        2.883  -2.690   3.700  0.00  0.00    -0.380 N 
ATOM      2  C   LIG    1        3.118  -3.689   4.752  0.00  0.00    +0.320 C 
ATOM      3  H   LIG    1        3.643  -2.026   3.692  0.00  0.00    +0.420 HD
ENDROOT
BRANCH   1   4
ATOM      4  C   LIG    1        2.805  -3.361   2.396  0.00  0.00    +0.170 C 
ATOM      5  C   LIG    1        1.748  -4.466   2.453  0.00  0.00    +0.090 C 
BRANCH   4   6
ATOM      6  C   LIG    1        4.165  -3.974   2.056  0.00  0.00    +0.050 C 
BRANCH   6   7
ATOM      7  C   LIG    1        5.207  -2.862   1.921  0.00  0.00    +0.010 C 
BRANCH   7   8
ATOM      8  C   LIG    1        6.560  -3.472   1.549  0.00  0.00    +0.060 C 
BRANCH   8  10
ATOM      9  C   LIG    1        8.694  -2.428   2.112  0.00  0.00    +0.020 C 
ATOM     10  C   LIG    1        7.586  -2.376   1.416  0.00  0.00    -0.060 C 
ENDBRANCH   8  10
ENDBRANCH   7   8
ENDBRANCH   6   7
ENDBRANCH   4   6
ENDBRANCH   1   4
BRANCH   1  11
ATOM     11  C   LIG    1        1.621  -1.987   3.965  0.00  0.00    +0.240 C 
BRANCH  11  12
ATOM     12  C   LIG    1        1.740  -1.200   5.271  0.00  0.00    +0.040 C 
BRANCH  12  13
ATOM     13  C   LIG    1        0.425  -0.468   5.547  0.00  0.00    -0.010 C 
ATOM     14  C   LIG    1        0.188   0.583   4.461  0.00  0.00    +0.020 C 
ATOM     15  C   LIG    1        0.499   0.218   6.913  0.00  0.00    +0.040 C 
ENDBRANCH  12  13
ENDBRANCH  11  12
ENDBRANCH   1  11
TORSDOF 8
ENDMDL
MODEL      150
REMARK  Name = ZINC000678715486
REMARK                            x       y       z     vdW  Elec       q    Type
REMARK                         _______ _______ _______ _____ _____    ______ ____
ROOT
ATOM      1  N   LIG    1        1.706  -4.295   2.181  0.00  0.00    -0.380 N 
ATOM      2  C   LIG    1        0.445  -3.572   1.972  0.00  0.00    +0.310 C 
ATOM      3  H   LIG    1        1.866  -4.923   1.407  0.00  0.00    +0.420 HD
ENDROOT
BRANCH   1   4
ATOM      4  C   LIG    1        2.814  -3.334   2.269  0.00  0.00    +0.160 C 
ATOM      5  C   LIG    1        2.649  -2.481   3.528  0.00  0.00    +0.080 C 
BRANCH   4   6
ATOM      6  C   LIG    1        4.142  -4.091   2.335  0.00  0.00    +0.050 C 
BRANCH   6   7
ATOM      7  C   LIG    1        4.366  -4.843   1.022  0.00  0.00    +0.010 C 
BRANCH   7   8
ATOM      8  C   LIG    1        5.751  -5.494   1.037  0.00  0.00    +0.060 C 
BRANCH   8  10
ATOM      9  C   LIG    1        7.023  -5.970  -0.992  0.00  0.00    +0.030 C 
ATOM     10  C   LIG    1        5.971  -6.235  -0.257  0.00  0.00    -0.070 C 
ENDBRANCH   8  10
ENDBRANCH   7   8
ENDBRANCH   6   7
ENDBRANCH   4   6
ENDBRANCH   1   4
BRANCH   1  11
ATOM     11  C   LIG    1        1.628  -5.067   3.428  0.00  0.00    +0.240 C 
BRANCH  11  12
ATOM     12  C   LIG    1        0.557  -6.152   3.290  0.00  0.00    +0.040 C 
BRANCH  12  13
ATOM     13  C   LIG    1        0.475  -6.955   4.590  0.00  0.00    -0.010 C 
ATOM     14  C   LIG    1        1.789  -7.709   4.807  0.00  0.00    +0.020 C 
ATOM     15  C   LIG    1       -0.678  -7.957   4.498  0.00  0.00    +0.040 C 
ENDBRANCH  12  13
ENDBRANCH  11  12
ENDBRANCH   1  11
TORSDOF 8
ENDMDL
MODEL      151
REMARK  Name = ZINC000678715605
REMARK                            x       y       z     vdW  Elec       q    Type
REMARK                         _______ _______ _______ _____ _____    ______ ____
ROOT
ATOM      1  N   LIG    1        3.150  -2.834   3.890  0.00  0.00    -0.390 N 
ATOM      2  C   LIG    1        1.925  -2.034   4.023  0.00  0.00    +0.320 C 
ATOM      3  H   LIG    1        3.912  -2.362   4.354  0.00  0.00    +0.420 HD
ENDROOT
BRANCH   1   4
ATOM      4  C   LIG    1        3.474  -3.002   2.467  0.00  0.00    +0.160 C 
ATOM      5  C   LIG    1        2.390  -3.847   1.794  0.00  0.00    +0.080 C 
BRANCH   4   6
ATOM      6  C   LIG    1        4.826  -3.704   2.330  0.00  0.00    +0.050 C 
BRANCH   6   7
ATOM      7  C   LIG    1        5.929  -2.799   2.883  0.00  0.00    +0.000 C 
BRANCH   7   8
ATOM      8  C   LIG    1        7.267  -3.538   2.835  0.00  0.00    +0.060 C 
BRANCH   8  10
ATOM      9  C   LIG    1        9.110  -3.062   4.365  0.00  0.00    +0.020 C 
ATOM     10  C   LIG    1        8.354  -2.647   3.380  0.00  0.00    -0.060 C 
ENDBRANCH   8  10
ENDBRANCH   7   8
ENDBRANCH   6   7
ENDBRANCH   4   6
ENDBRANCH   1   4
BRANCH   1  11
ATOM     11  C   LIG    1        2.944  -4.152   4.504  0.00  0.00    +0.250 C 
BRANCH  11  12
ATOM     12  C   LIG    1        2.762  -3.989   6.014  0.00  0.00    -0.080 C 
ATOM     13  C   LIG    1        3.748  -2.941   6.536  0.00  0.00    +0.040 C 
ATOM     14  C   LIG    1        3.026  -5.327   6.708  0.00  0.00    +0.070 C 
ATOM     15  C   LIG    1        1.331  -3.534   6.310  0.00  0.00    +0.040 C 
ENDBRANCH  11  12
ENDBRANCH   1  11
TORSDOF 7
ENDMDL
MODEL      152
REMARK  Name = ZINC000678716319
REMARK                            x       y       z     vdW  Elec       q    Type
REMARK                         _______ _______ _______ _____ _____    ______ ____
ROOT
ATOM      1  N   LIG    1       -1.586  -4.316  -2.224  0.00  0.00    -0.380 N 
ATOM      2  C   LIG    1       -1.444  -5.158  -3.419  0.00  0.00    +0.330 C 
ATOM      3  H   LIG    1       -1.769  -4.899  -1.421  0.00  0.00    +0.420 HD
ENDROOT
BRANCH   1   4
ATOM      4  C   LIG    1       -2.701  -3.380  -2.414  0.00  0.00    +0.170 C 
ATOM      5  C   LIG    1       -2.488  -2.586  -3.705  0.00  0.00    +0.080 C 
BRANCH   4   6
ATOM      6  C   LIG    1       -4.013  -4.162  -2.507  0.00  0.00    +0.050 C 
BRANCH   6   7
ATOM      7  C   LIG    1       -4.290  -4.854  -1.171  0.00  0.00    +0.010 C 
BRANCH   7   8
ATOM      8  C   LIG    1       -5.662  -5.530  -1.222  0.00  0.00    +0.060 C 
BRANCH   8  10
ATOM      9  C   LIG    1       -7.026  -5.932   0.763  0.00  0.00    +0.030 C 
ATOM     10  C   LIG    1       -5.935  -6.212   0.094  0.00  0.00    -0.070 C 
ENDBRANCH   8  10
ENDBRANCH   7   8
ENDBRANCH   6   7
ENDBRANCH   4   6
ENDBRANCH   1   4
BRANCH   1  11
ATOM     11  C   LIG    1       -0.344  -3.561  -2.007  0.00  0.00    +0.250 C 
BRANCH  11  12
ATOM     12  C   LIG    1        0.788  -4.529  -1.661  0.00  0.00    +0.040 C 
BRANCH  12  13
ATOM     13  C   LIG    1        2.081  -3.743  -1.435  0.00  0.00    +0.070 C 
BRANCH  13  14
ATOM     14  C   LIG    1        3.196  -4.697  -1.094  0.00  0.00    -0.070 C 
ATOM     15  C   LIG    1        4.301  -4.692  -1.798  0.00  0.00    +0.030 C 
ENDBRANCH  13  14
ENDBRANCH  12  13
ENDBRANCH  11  12
ENDBRANCH   1  11
TORSDOF 9
ENDMDL
MODEL      153
REMARK  Name = ZINC000678717091
REMARK                            x       y       z     vdW  Elec       q    Type
REMARK                         _______ _______ _______ _____ _____    ______ ____
ROOT
ATOM      1  N   LIG    1       -2.806  -2.726  -3.726  0.00  0.00    -0.390 N 
ATOM      2  C   LIG    1       -3.013  -3.720  -4.788  0.00  0.00    +0.310 C 
ATOM      3  H   LIG    1       -3.583  -2.083  -3.711  0.00  0.00    +0.420 HD
ENDROOT
BRANCH   1   4
ATOM      4  C   LIG    1       -2.710  -3.409  -2.429  0.00  0.00    +0.160 C 
ATOM      5  C   LIG    1       -1.623  -4.484  -2.497  0.00  0.00    +0.090 C 
BRANCH   4   6
ATOM      6  C   LIG    1       -4.053  -4.062  -2.096  0.00  0.00    +0.050 C 
BRANCH   6   7
ATOM      7  C   LIG    1       -5.124  -2.979  -1.948  0.00  0.00    +0.010 C 
BRANCH   7   8
ATOM      8  C   LIG    1       -6.460  -3.630  -1.583  0.00  0.00    +0.060 C 
BRANCH   8  10
ATOM      9  C   LIG    1       -8.621  -2.638  -2.135  0.00  0.00    +0.020 C 
ATOM     10  C   LIG    1       -7.515  -2.563  -1.438  0.00  0.00    -0.060 C 
ENDBRANCH   8  10
ENDBRANCH   7   8
ENDBRANCH   6   7
ENDBRANCH   4   6
ENDBRANCH   1   4
BRANCH   1  11
ATOM     11  C   LIG    1       -1.563  -1.987  -3.983  0.00  0.00    +0.250 C 
BRANCH  11  12
ATOM     12  C   LIG    1       -1.703  -1.188  -5.280  0.00  0.00    -0.030 C 
ATOM     13  C   LIG    1       -2.782  -0.118  -5.106  0.00  0.00    +0.040 C 
BRANCH  12  14
ATOM     14  C   LIG    1       -0.369  -0.518  -5.614  0.00  0.00    +0.020 C 
ATOM     15  C   LIG    1       -0.473   0.177  -6.973  0.00  0.00    +0.030 C 
ENDBRANCH  12  14
ENDBRANCH  11  12
ENDBRANCH   1  11
TORSDOF 8
ENDMDL
MODEL      154
REMARK  Name = ZINC000678717089
REMARK                            x       y       z     vdW  Elec       q    Type
REMARK                         _______ _______ _______ _____ _____    ______ ____
ROOT
ATOM      1  N   LIG    1       -2.731  -2.706  -3.732  0.00  0.00    -0.390 N 
ATOM      2  C   LIG    1       -3.099  -3.559  -4.870  0.00  0.00    +0.320 C 
ATOM      3  H   LIG    1       -3.494  -2.081  -3.519  0.00  0.00    +0.420 HD
ENDROOT
BRANCH   1   4
ATOM      4  C   LIG    1       -2.446  -3.547  -2.562  0.00  0.00    +0.160 C 
ATOM      5  C   LIG    1       -1.389  -4.591  -2.929  0.00  0.00    +0.080 C 
BRANCH   4   6
ATOM      6  C   LIG    1       -3.728  -4.253  -2.116  0.00  0.00    +0.050 C 
BRANCH   6   7
ATOM      7  C   LIG    1       -4.744  -3.213  -1.640  0.00  0.00    +0.000 C 
BRANCH   7   8
ATOM      8  C   LIG    1       -6.046  -3.914  -1.250  0.00  0.00    +0.060 C 
BRANCH   8  10
ATOM      9  C   LIG    1       -8.229  -2.822  -1.343  0.00  0.00    +0.020 C 
ATOM     10  C   LIG    1       -7.047  -2.890  -0.781  0.00  0.00    -0.060 C 
ENDBRANCH   8  10
ENDBRANCH   7   8
ENDBRANCH   6   7
ENDBRANCH   4   6
ENDBRANCH   1   4
BRANCH   1  11
ATOM     11  C   LIG    1       -1.537  -1.922  -4.075  0.00  0.00    +0.250 C 
BRANCH  11  12
ATOM     12  C   LIG    1       -1.215  -0.957  -2.931  0.00  0.00    -0.030 C 
ATOM     13  C   LIG    1       -2.365   0.038  -2.765  0.00  0.00    +0.040 C 
BRANCH  12  14
ATOM     14  C   LIG    1        0.074  -0.198  -3.252  0.00  0.00    +0.020 C 
ATOM     15  C   LIG    1        0.464   0.674  -2.057  0.00  0.00    +0.030 C 
ENDBRANCH  12  14
ENDBRANCH  11  12
ENDBRANCH   1  11
TORSDOF 8
ENDMDL
MODEL      155
REMARK  Name = ZINC000678717090
REMARK                            x       y       z     vdW  Elec       q    Type
REMARK                         _______ _______ _______ _____ _____    ______ ____
ROOT
ATOM      1  N   LIG    1       -1.663  -4.375  -2.196  0.00  0.00    -0.390 N 
ATOM      2  C   LIG    1       -0.366  -3.748  -1.905  0.00  0.00    +0.310 C 
ATOM      3  H   LIG    1       -1.899  -5.019  -1.455  0.00  0.00    +0.420 HD
ENDROOT
BRANCH   1   4
ATOM      4  C   LIG    1       -2.698  -3.337  -2.291  0.00  0.00    +0.160 C 
ATOM      5  C   LIG    1       -2.418  -2.447  -3.503  0.00  0.00    +0.080 C 
BRANCH   4   6
ATOM      6  C   LIG    1       -4.069  -3.998  -2.448  0.00  0.00    +0.050 C 
BRANCH   6   7
ATOM      7  C   LIG    1       -4.404  -4.787  -1.181  0.00  0.00    +0.010 C 
BRANCH   7   8
ATOM      8  C   LIG    1       -5.826  -5.342  -1.287  0.00  0.00    +0.060 C 
BRANCH   8  10
ATOM      9  C   LIG    1       -7.221  -5.815   0.660  0.00  0.00    +0.030 C 
ATOM     10  C   LIG    1       -6.156  -6.119  -0.039  0.00  0.00    -0.070 C 
ENDBRANCH   8  10
ENDBRANCH   7   8
ENDBRANCH   6   7
ENDBRANCH   4   6
ENDBRANCH   1   4
BRANCH   1  11
ATOM     11  C   LIG    1       -1.580  -5.102  -3.469  0.00  0.00    +0.240 C 
BRANCH  11  12
ATOM     12  C   LIG    1       -0.606  -6.274  -3.325  0.00  0.00    -0.030 C 
ATOM     13  C   LIG    1       -0.414  -6.947  -4.686  0.00  0.00    +0.070 C 
BRANCH  12  14
ATOM     14  C   LIG    1       -1.172  -7.288  -2.329  0.00  0.00    +0.000 C 
ATOM     15  C   LIG    1       -0.144  -8.396  -2.091  0.00  0.00    +0.040 C 
ENDBRANCH  12  14
ENDBRANCH  11  12
ENDBRANCH   1  11
TORSDOF 8
ENDMDL
MODEL      156
REMARK  Name = ZINC000678717092
REMARK                            x       y       z     vdW  Elec       q    Type
REMARK                         _______ _______ _______ _____ _____    ______ ____
ROOT
ATOM      1  N   LIG    1       -1.586  -4.316  -2.224  0.00  0.00    -0.390 N 
ATOM      2  C   LIG    1       -0.344  -3.561  -2.007  0.00  0.00    +0.310 C 
ATOM      3  H   LIG    1       -1.727  -4.958  -1.458  0.00  0.00    +0.420 HD
ENDROOT
BRANCH   1   4
ATOM      4  C   LIG    1       -2.719  -3.384  -2.297  0.00  0.00    +0.160 C 
ATOM      5  C   LIG    1       -2.581  -2.511  -3.546  0.00  0.00    +0.080 C 
BRANCH   4   6
ATOM      6  C   LIG    1       -4.026  -4.176  -2.371  0.00  0.00    +0.050 C 
BRANCH   6   7
ATOM      7  C   LIG    1       -4.227  -4.952  -1.068  0.00  0.00    +0.010 C 
BRANCH   7   8
ATOM      8  C   LIG    1       -5.593  -5.640  -1.089  0.00  0.00    +0.060 C 
BRANCH   8  10
ATOM      9  C   LIG    1       -6.847  -6.178   0.936  0.00  0.00    +0.030 C 
ATOM     10  C   LIG    1       -5.790  -6.404   0.195  0.00  0.00    -0.070 C 
ENDBRANCH   8  10
ENDBRANCH   7   8
ENDBRANCH   6   7
ENDBRANCH   4   6
ENDBRANCH   1   4
BRANCH   1  11
ATOM     11  C   LIG    1       -1.488  -5.068  -3.482  0.00  0.00    +0.240 C 
BRANCH  11  12
ATOM     12  C   LIG    1       -0.387  -6.124  -3.360  0.00  0.00    -0.030 C 
ATOM     13  C   LIG    1       -0.785  -7.155  -2.302  0.00  0.00    +0.040 C 
BRANCH  12  14
ATOM     14  C   LIG    1       -0.200  -6.824  -4.708  0.00  0.00    +0.020 C 
ATOM     15  C   LIG    1        0.982  -7.791  -4.621  0.00  0.00    +0.030 C 
ENDBRANCH  12  14
ENDBRANCH  11  12
ENDBRANCH   1  11
TORSDOF 8
ENDMDL
MODEL      157
REMARK  Name = ZINC000605149765
REMARK                            x       y       z     vdW  Elec       q    Type
REMARK                         _______ _______ _______ _____ _____    ______ ____
ROOT
ATOM      1  N   LIG    1        2.755  -3.402   2.274  0.00  0.00    -0.380 N 
ATOM      2  C   LIG    1        1.666  -4.388   2.296  0.00  0.00    +0.300 C 
ATOM      3  H   LIG    1        2.619  -2.768   1.501  0.00  0.00    +0.420 HD
ENDROOT
BRANCH   1   4
ATOM      4  C   LIG    1        4.041  -4.096   2.118  0.00  0.00    +0.170 C 
ATOM      5  C   LIG    1        4.173  -5.159   3.175  0.00  0.00    +0.030 C 
ATOM      6  C   LIG    1        5.628  -5.344   3.646  0.00  0.00    +0.030 C 
ATOM      7  C   LIG    1        6.641  -5.310   2.484  0.00  0.00    +0.000 C 
ATOM      8  C   LIG    1        6.158  -6.068   1.277  0.00  0.00    +0.020 C 
ATOM      9  C   LIG    1        5.463  -5.077   0.322  0.00  0.00    +0.020 C 
ATOM     10  C   LIG    1        4.100  -4.773   0.733  0.00  0.00    +0.040 C 
ENDBRANCH   1   4
BRANCH   1  11
ATOM     11  C   LIG    1        2.756  -2.646   3.533  0.00  0.00    +0.250 C 
BRANCH  11  12
ATOM     12  C   LIG    1        1.481  -1.806   3.625  0.00  0.00    +0.040 C 
BRANCH  12  13
ATOM     13  C   LIG    1        1.482  -1.018   4.936  0.00  0.00    +0.070 C 
BRANCH  13  15
ATOM     14  C   LIG    1       -0.562  -0.307   6.067  0.00  0.00    +0.030 C 
ATOM     15  C   LIG    1        0.226  -0.191   5.027  0.00  0.00    -0.070 C 
ENDBRANCH  13  15
ENDBRANCH  12  13
ENDBRANCH  11  12
ENDBRANCH   1  11
TORSDOF 5
ENDMDL
MODEL      158
REMARK  Name = ZINC000605149834
REMARK                            x       y       z     vdW  Elec       q    Type
REMARK                         _______ _______ _______ _____ _____    ______ ____
ROOT
ATOM      1  N   LIG    1        2.649  -3.111   2.328  0.00  0.00    -0.380 N 
ATOM      2  H   LIG    1        2.668  -3.060   3.336  0.00  0.00    +0.420 HD
ENDROOT
BRANCH   1   3
ATOM      3  C   LIG    1        1.585  -4.031   1.905  0.00  0.00    +0.160 C 
ATOM      4  C   LIG    1        1.405  -5.123   2.961  0.00  0.00    +0.070 C 
ATOM      5  C   LIG    1        1.968  -4.673   0.569  0.00  0.00    +0.080 C 
ENDBRANCH   1   3
BRANCH   1   6
ATOM      6  C   LIG    1        2.389  -1.775   1.776  0.00  0.00    +0.250 C 
BRANCH   6   7
ATOM      7  C   LIG    1        1.079  -1.232   2.350  0.00  0.00    +0.040 C 
BRANCH   7   8
ATOM      8  C   LIG    1        0.876   0.211   1.882  0.00  0.00    +0.070 C 
BRANCH   8  10
ATOM      9  C   LIG    1       -0.414   1.855   3.144  0.00  0.00    +0.030 C 
ATOM     10  C   LIG    1       -0.414   0.746   2.447  0.00  0.00    -0.070 C 
ENDBRANCH   8  10
ENDBRANCH   7   8
ENDBRANCH   6   7
ENDBRANCH   1   6
BRANCH   1  11
ATOM     11  C   LIG    1        3.944  -3.600   1.838  0.00  0.00    +0.250 C 
BRANCH  11  12
ATOM     12  C   LIG    1        4.288  -4.918   2.534  0.00  0.00    +0.030 C 
BRANCH  12  13
ATOM     13  C   LIG    1        5.702  -5.350   2.138  0.00  0.00    +0.020 C 
BRANCH  13  14
ATOM     14  C   LIG    1        6.046  -6.668   2.834  0.00  0.00    +0.010 C 
ATOM     15  C   LIG    1        7.460  -7.100   2.438  0.00  0.00    +0.020 C 
ENDBRANCH  13  14
ENDBRANCH  12  13
ENDBRANCH  11  12
ENDBRANCH   1  11
TORSDOF 9
ENDMDL
MODEL      159
REMARK  Name = ZINC000605150086
REMARK                            x       y       z     vdW  Elec       q    Type
REMARK                         _______ _______ _______ _____ _____    ______ ____
ROOT
ATOM      1  N   LIG    1        2.851  -3.487   2.448  0.00  0.00    -0.350 N 
ATOM      2  H   LIG    1        2.650  -2.948   3.277  0.00  0.00    +0.420 HD
ENDROOT
BRANCH   1   3
ATOM      3  C   LIG    1        1.969  -4.661   2.401  0.00  0.00    +0.090 C 
ATOM      4  C   LIG    1        1.254  -5.059   3.693  0.00  0.00    +0.090 C 
ATOM      5  C   LIG    1        0.465  -4.421   2.548  0.00  0.00    +0.090 C 
ENDBRANCH   1   3
BRANCH   1   6
ATOM      6  C   LIG    1        2.624  -2.656   1.258  0.00  0.00    +0.250 C 
BRANCH   6   7
ATOM      7  C   LIG    1        1.215  -2.062   1.312  0.00  0.00    +0.020 C 
BRANCH   7   8
ATOM      8  C   LIG    1        1.038  -1.063   0.166  0.00  0.00    +0.060 C 
BRANCH   8  10
ATOM      9  C   LIG    1       -0.511   0.821   0.266  0.00  0.00    +0.030 C 
ATOM     10  C   LIG    1       -0.350  -0.478   0.220  0.00  0.00    -0.070 C 
ENDBRANCH   8  10
ENDBRANCH   7   8
ENDBRANCH   6   7
ENDBRANCH   1   6
BRANCH   1  11
ATOM     11  C   LIG    1        4.252  -3.927   2.477  0.00  0.00    +0.170 C 
BRANCH  11  12
ATOM     12  C   LIG    1        5.127  -2.808   3.045  0.00  0.00    +0.050 C 
ATOM     13  C   LIG    1        4.753  -2.561   4.508  0.00  0.00    +0.030 C 
ENDBRANCH  11  12
BRANCH  11  14
ATOM     14  C   LIG    1        4.711  -4.262   1.057  0.00  0.00    +0.050 C 
ATOM     15  C   LIG    1        3.899  -5.445   0.524  0.00  0.00    +0.030 C 
ENDBRANCH  11  14
ENDBRANCH   1  11
TORSDOF 8
ENDMDL
MODEL      160
REMARK  Name = ZINC000605149767
REMARK                            x       y       z     vdW  Elec       q    Type
REMARK                         _______ _______ _______ _____ _____    ______ ____
ROOT
ATOM      1  N   LIG    1        2.853  -3.358   2.375  0.00  0.00    -0.380 N 
ATOM      2  H   LIG    1        2.193  -4.118   2.454  0.00  0.00    +0.420 HD
ENDROOT
BRANCH   1   3
ATOM      3  C   LIG    1        4.217  -3.898   2.312  0.00  0.00    +0.160 C 
ATOM      4  C   LIG    1        4.509  -4.695   3.585  0.00  0.00    +0.040 C 
ATOM      5  C   LIG    1        5.930  -5.258   3.520  0.00  0.00    +0.030 C 
ATOM      6  C   LIG    1        6.060  -6.176   2.302  0.00  0.00    +0.020 C 
ATOM      7  C   LIG    1        5.768  -5.378   1.030  0.00  0.00    +0.030 C 
ATOM      8  C   LIG    1        4.347  -4.816   1.095  0.00  0.00    +0.040 C 
ENDBRANCH   1   3
BRANCH   1   9
ATOM      9  C   LIG    1        2.728  -2.477   3.543  0.00  0.00    +0.240 C 
ATOM     10  C   LIG    1        3.800  -1.387   3.478  0.00  0.00    +0.080 C 
ENDBRANCH   1   9
BRANCH   1  11
ATOM     11  C   LIG    1        2.572  -2.593   1.152  0.00  0.00    +0.240 C 
BRANCH  11  12
ATOM     12  C   LIG    1        1.116  -2.123   1.167  0.00  0.00    +0.040 C 
BRANCH  12  13
ATOM     13  C   LIG    1        0.784  -1.448  -0.165  0.00  0.00    +0.070 C 
BRANCH  13  15
ATOM     14  C   LIG    1       -0.936   0.268  -0.400  0.00  0.00    +0.030 C 
ATOM     15  C   LIG    1       -0.650  -0.986  -0.151  0.00  0.00    -0.070 C 
ENDBRANCH  13  15
ENDBRANCH  12  13
ENDBRANCH  11  12
ENDBRANCH   1  11
TORSDOF 6
ENDMDL
MODEL      161
REMARK  Name = ZINC000605150343
REMARK                            x       y       z     vdW  Elec       q    Type
REMARK                         _______ _______ _______ _____ _____    ______ ____
ROOT
ATOM      1  N   LIG    1        2.423  -3.174   2.368  0.00  0.00    -0.380 N 
ATOM      2  H   LIG    1        1.707  -3.817   2.672  0.00  0.00    +0.420 HD
ENDROOT
BRANCH   1   3
ATOM      3  C   LIG    1        3.664  -3.915   2.105  0.00  0.00    +0.160 C 
ATOM      4  C   LIG    1        3.986  -4.869   3.281  0.00  0.00    +0.040 C 
ATOM      5  C   LIG    1        4.885  -5.941   2.615  0.00  0.00    +0.040 C 
ATOM      6  C   LIG    1        4.262  -6.142   1.218  0.00  0.00    +0.030 C 
ATOM      7  C   LIG    1        3.486  -4.854   0.894  0.00  0.00    +0.030 C 
ENDBRANCH   1   3
BRANCH   1   8
ATOM      8  C   LIG    1        2.663  -2.175   3.418  0.00  0.00    +0.160 C 
ATOM      9  C   LIG    1        3.852  -1.297   3.025  0.00  0.00    +0.090 C 
ATOM     10  C   LIG    1        2.969  -2.886   4.738  0.00  0.00    +0.080 C 
ENDBRANCH   1   8
BRANCH   1  11
ATOM     11  C   LIG    1        1.986  -2.498   1.140  0.00  0.00    +0.240 C 
BRANCH  11  12
ATOM     12  C   LIG    1        0.620  -1.850   1.373  0.00  0.00    +0.040 C 
BRANCH  12  13
ATOM     13  C   LIG    1        0.204  -1.073   0.122  0.00  0.00    +0.070 C 
BRANCH  13  15
ATOM     14  C   LIG    1       -1.291   0.856   0.186  0.00  0.00    +0.030 C 
ATOM     15  C   LIG    1       -1.141  -0.434   0.352  0.00  0.00    -0.070 C 
ENDBRANCH  13  15
ENDBRANCH  12  13
ENDBRANCH  11  12
ENDBRANCH   1  11
TORSDOF 6
ENDMDL
MODEL      162
REMARK  Name = ZINC000605150966
REMARK                            x       y       z     vdW  Elec       q    Type
REMARK                         _______ _______ _______ _____ _____    ______ ____
ROOT
ATOM      1  N   LIG    1       -2.659  -3.397  -2.397  0.00  0.00    -0.390 N 
ATOM      2  H   LIG    1       -1.963  -4.127  -2.372  0.00  0.00    +0.420 HD
ENDROOT
BRANCH   1   3
ATOM      3  C   LIG    1       -2.447  -2.560  -3.586  0.00  0.00    +0.240 C 
ATOM      4  C   LIG    1       -3.430  -1.388  -3.566  0.00  0.00    +0.080 C 
ENDBRANCH   1   3
BRANCH   1   5
ATOM      5  C   LIG    1       -2.545  -2.569  -1.189  0.00  0.00    +0.240 C 
BRANCH   5   6
ATOM      6  C   LIG    1       -1.108  -2.060  -1.054  0.00  0.00    +0.040 C 
BRANCH   6   7
ATOM      7  C   LIG    1       -1.013  -1.117   0.147  0.00  0.00    +0.070 C 
BRANCH   7   9
ATOM      8  C   LIG    1        0.641   0.672   0.310  0.00  0.00    +0.030 C 
ATOM      9  C   LIG    1        0.402  -0.616   0.281  0.00  0.00    -0.070 C 
ENDBRANCH   7   9
ENDBRANCH   6   7
ENDBRANCH   5   6
ENDBRANCH   1   5
BRANCH   1  10
ATOM     10  C   LIG    1       -3.998  -3.998  -2.454  0.00  0.00    +0.250 C 
BRANCH  10  11
ATOM     11  C   LIG    1       -4.070  -4.972  -3.633  0.00  0.00    -0.020 C 
BRANCH  11  12
ATOM     12  C   LIG    1       -5.486  -5.541  -3.737  0.00  0.00    +0.040 C 
ATOM     13  C   LIG    1       -6.463  -4.418  -4.093  0.00  0.00    +0.020 C 
ENDBRANCH  11  12
BRANCH  11  14
ATOM     14  C   LIG    1       -3.076  -6.114  -3.413  0.00  0.00    +0.000 C 
ATOM     15  C   LIG    1       -3.058  -7.019  -4.646  0.00  0.00    +0.040 C 
ENDBRANCH  11  14
ENDBRANCH  10  11
ENDBRANCH   1  10
TORSDOF 9
ENDMDL
MODEL      163
REMARK  Name = ZINC001169342358
REMARK                            x       y       z     vdW  Elec       q    Type
REMARK                         _______ _______ _______ _____ _____    ______ ____
ROOT
ATOM      1  C   LIG    1       -2.659  -3.332  -2.372  0.00  0.00    +0.250 C 
ENDROOT
BRANCH   1   2
ATOM      2  N   LIG    1       -2.581  -2.493  -1.168  0.00  0.00    -0.390 N 
ATOM      3  C   LIG    1       -2.636  -3.344   0.027  0.00  0.00    +0.310 C 
ATOM      4  H   LIG    1       -3.357  -1.847  -1.157  0.00  0.00    +0.420 HD
BRANCH   2   5
ATOM      5  C   LIG    1       -1.319  -1.741  -1.176  0.00  0.00    +0.250 C 
BRANCH   5   6
ATOM      6  C   LIG    1       -1.293  -0.775   0.010  0.00  0.00    +0.060 C 
BRANCH   6   8
ATOM      7  C   LIG    1       -0.016   1.306   0.009  0.00  0.00    +0.060 C 
ATOM      8  C   LIG    1        0.002  -0.004   0.002  0.00  0.00    -0.070 C 
ENDBRANCH   6   8
ENDBRANCH   5   6
ENDBRANCH   2   5
ENDBRANCH   1   2
BRANCH   1   9
ATOM      9  C   LIG    1       -4.024  -4.019  -2.427  0.00  0.00    +0.030 C 
BRANCH   9  10
ATOM     10  C   LIG    1       -4.106  -4.893  -3.680  0.00  0.00    +0.020 C 
BRANCH  10  11
ATOM     11  C   LIG    1       -5.471  -5.580  -3.735  0.00  0.00    +0.020 C 
BRANCH  11  12
ATOM     12  C   LIG    1       -5.552  -6.454  -4.988  0.00  0.00    +0.000 C 
BRANCH  12  13
ATOM     13  C   LIG    1       -6.918  -7.141  -5.043  0.00  0.00    +0.000 C 
BRANCH  13  14
ATOM     14  C   LIG    1       -6.999  -8.015  -6.297  0.00  0.00    -0.010 C 
ATOM     15  C   LIG    1       -8.365  -8.702  -6.352  0.00  0.00    +0.000 C 
ENDBRANCH  13  14
ENDBRANCH  12  13
ENDBRANCH  11  12
ENDBRANCH  10  11
ENDBRANCH   9  10
ENDBRANCH   1   9
TORSDOF 10
ENDMDL
MODEL      164
REMARK  Name = ZINC000680434455
REMARK                            x       y       z     vdW  Elec       q    Type
REMARK                         _______ _______ _______ _____ _____    ______ ____
ROOT
ATOM      1  N   LIG    1        1.721  -1.063   1.308  0.00  0.00    -0.380 N 
ATOM      2  C   LIG    1        2.089   0.158   2.034  0.00  0.00    +0.250 C 
ATOM      3  C   LIG    1        2.360  -0.179   3.502  0.00  0.00    +0.060 C 
ATOM      4  C   LIG    1        3.508  -1.189   3.585  0.00  0.00    +0.030 C 
ATOM      5  C   LIG    1        3.144  -2.429   2.762  0.00  0.00    +0.060 C 
ATOM      6  C   LIG    1        2.846  -2.007   1.322  0.00  0.00    +0.170 C 
ATOM      7  H   LIG    1        0.921  -1.489   1.751  0.00  0.00    +0.420 HD
ENDROOT
BRANCH   1   8
ATOM      8  C   LIG    1        1.387  -0.723  -0.081  0.00  0.00    +0.300 C 
BRANCH   8  10
ATOM      9  C   LIG    1        0.300   1.462  -0.145  0.00  0.00    +0.110 C 
ATOM     10  C   LIG    1        0.166   0.160  -0.102  0.00  0.00    -0.190 C 
BRANCH  10  11
ATOM     11  C   LIG    1       -1.210  -0.455  -0.074  0.00  0.00    +0.060 C 
ATOM     12  C   LIG    1       -1.633  -0.824  -1.497  0.00  0.00    +0.040 C 
ENDBRANCH  10  11
ENDBRANCH   8  10
ENDBRANCH   1   8
BRANCH   6  13
ATOM     13  C   LIG    1        2.481  -3.241   0.494  0.00  0.00    +0.030 C 
BRANCH  13  14
ATOM     14  C   LIG    1        3.672  -4.201   0.458  0.00  0.00    +0.030 C 
ATOM     15  C   LIG    1        3.357  -5.371  -0.476  0.00  0.00    +0.030 C 
ENDBRANCH  13  14
ENDBRANCH   6  13
TORSDOF 5
ENDMDL
MODEL      165
REMARK  Name = ZINC000680433901
REMARK                            x       y       z     vdW  Elec       q    Type
REMARK                         _______ _______ _______ _____ _____    ______ ____
ROOT
ATOM      1  N   LIG    1       -2.692  -3.406  -2.280  0.00  0.00    -0.380 N 
ATOM      2  C   LIG    1       -2.827  -2.639  -3.524  0.00  0.00    +0.250 C 
ATOM      3  C   LIG    1       -2.722  -3.583  -4.724  0.00  0.00    +0.050 C 
ATOM      4  C   LIG    1       -3.838  -4.628  -4.644  0.00  0.00    +0.030 C 
ATOM      5  C   LIG    1       -3.732  -5.372  -3.309  0.00  0.00    +0.060 C 
ATOM      6  C   LIG    1       -3.801  -4.361  -2.163  0.00  0.00    +0.170 C 
ATOM      7  H   LIG    1       -1.817  -3.909  -2.289  0.00  0.00    +0.420 HD
ENDROOT
BRANCH   1   8
ATOM      8  C   LIG    1       -2.715  -2.487  -1.135  0.00  0.00    +0.240 C 
BRANCH   8   9
ATOM      9  C   LIG    1       -1.493  -1.568  -1.193  0.00  0.00    +0.040 C 
BRANCH   9  10
ATOM     10  C   LIG    1       -1.518  -0.611   0.000  0.00  0.00    +0.070 C 
BRANCH  10  12
ATOM     11  C   LIG    1       -0.471   1.594  -0.037  0.00  0.00    +0.030 C 
ATOM     12  C   LIG    1       -0.314   0.294  -0.057  0.00  0.00    -0.070 C 
ENDBRANCH  10  12
ENDBRANCH   9  10
ENDBRANCH   8   9
ENDBRANCH   1   8
BRANCH   6  13
ATOM     13  C   LIG    1       -3.695  -5.098  -0.826  0.00  0.00    +0.030 C 
BRANCH  13  14
ATOM     14  C   LIG    1       -4.881  -6.053  -0.675  0.00  0.00    +0.030 C 
ATOM     15  C   LIG    1       -4.848  -6.691   0.715  0.00  0.00    +0.030 C 
ENDBRANCH  13  14
ENDBRANCH   6  13
TORSDOF 6
ENDMDL
MODEL      166
REMARK  Name = ZINC000680434456
REMARK                            x       y       z     vdW  Elec       q    Type
REMARK                         _______ _______ _______ _____ _____    ______ ____
ROOT
ATOM      1  N   LIG    1        1.699  -1.091   1.360  0.00  0.00    -0.380 N 
ATOM      2  C   LIG    1        1.945   0.135   2.127  0.00  0.00    +0.250 C 
ATOM      3  C   LIG    1        3.024   0.968   1.431  0.00  0.00    +0.050 C 
ATOM      4  C   LIG    1        4.316   0.150   1.344  0.00  0.00    +0.030 C 
ATOM      5  C   LIG    1        4.030  -1.161   0.607  0.00  0.00    +0.060 C 
ATOM      6  C   LIG    1        2.915  -1.913   1.333  0.00  0.00    +0.170 C 
ATOM      7  H   LIG    1        0.951  -1.613   1.792  0.00  0.00    +0.420 HD
ENDROOT
BRANCH   1   8
ATOM      8  C   LIG    1        1.317  -0.740  -0.015  0.00  0.00    +0.300 C 
BRANCH   8  10
ATOM      9  C   LIG    1       -0.016   1.306   0.009  0.00  0.00    +0.110 C 
ATOM     10  C   LIG    1        0.002  -0.004   0.002  0.00  0.00    -0.190 C 
BRANCH  10  11
ATOM     11  C   LIG    1       -1.293  -0.775   0.010  0.00  0.00    +0.060 C 
ATOM     12  C   LIG    1       -1.680  -1.137  -1.425  0.00  0.00    +0.040 C 
ENDBRANCH  10  11
ENDBRANCH   8  10
ENDBRANCH   1   8
BRANCH   6  13
ATOM     13  C   LIG    1        2.624  -3.225   0.601  0.00  0.00    +0.050 C 
BRANCH  13  14
ATOM     14  C   LIG    1        1.598  -4.036   1.394  0.00  0.00    -0.010 C 
ATOM     15  C   LIG    1        1.307  -5.347   0.662  0.00  0.00    +0.030 C 
ENDBRANCH  13  14
ENDBRANCH   6  13
TORSDOF 5
ENDMDL
MODEL      167
REMARK  Name = ZINC000680433902
REMARK                            x       y       z     vdW  Elec       q    Type
REMARK                         _______ _______ _______ _____ _____    ______ ____
ROOT
ATOM      1  N   LIG    1       -2.658  -3.451  -2.307  0.00  0.00    -0.380 N 
ATOM      2  C   LIG    1       -2.666  -2.685  -3.559  0.00  0.00    +0.250 C 
ATOM      3  C   LIG    1       -3.864  -1.733  -3.572  0.00  0.00    +0.050 C 
ATOM      4  C   LIG    1       -5.157  -2.547  -3.462  0.00  0.00    +0.030 C 
ATOM      5  C   LIG    1       -5.105  -3.398  -2.190  0.00  0.00    +0.060 C 
ATOM      6  C   LIG    1       -3.862  -4.287  -2.229  0.00  0.00    +0.170 C 
ATOM      7  H   LIG    1       -1.839  -4.039  -2.279  0.00  0.00    +0.420 HD
ENDROOT
BRANCH   1   8
ATOM      8  C   LIG    1       -2.633  -2.524  -1.168  0.00  0.00    +0.240 C 
BRANCH   8   9
ATOM      9  C   LIG    1       -1.319  -1.741  -1.176  0.00  0.00    +0.040 C 
BRANCH   9  10
ATOM     10  C   LIG    1       -1.293  -0.775   0.010  0.00  0.00    +0.070 C 
BRANCH  10  12
ATOM     11  C   LIG    1       -0.016   1.306   0.009  0.00  0.00    +0.030 C 
ATOM     12  C   LIG    1        0.002  -0.004   0.002  0.00  0.00    -0.070 C 
ENDBRANCH  10  12
ENDBRANCH   9  10
ENDBRANCH   8   9
ENDBRANCH   1   8
BRANCH   6  13
ATOM     13  C   LIG    1       -3.805  -5.140  -0.960  0.00  0.00    +0.050 C 
BRANCH  13  14
ATOM     14  C   LIG    1       -2.631  -6.117  -1.055  0.00  0.00    -0.010 C 
ATOM     15  C   LIG    1       -2.575  -6.970   0.214  0.00  0.00    +0.030 C 
ENDBRANCH  13  14
ENDBRANCH   6  13
TORSDOF 6
ENDMDL
MODEL      168
REMARK  Name = ZINC000606897335
REMARK                            x       y       z     vdW  Elec       q    Type
REMARK                         _______ _______ _______ _____ _____    ______ ____
ROOT
ATOM      1  N   LIG    1       -2.206  -2.448  -1.265  0.00  0.00    -0.380 N 
ATOM      2  H   LIG    1       -2.870  -1.689  -1.240  0.00  0.00    +0.420 HD
ENDROOT
BRANCH   1   3
ATOM      3  C   LIG    1       -2.560  -3.372  -2.351  0.00  0.00    +0.160 C 
ATOM      4  C   LIG    1       -4.002  -3.849  -2.166  0.00  0.00    +0.040 C 
ATOM      5  C   LIG    1       -4.370  -4.811  -3.297  0.00  0.00    +0.030 C 
ATOM      6  C   LIG    1       -4.239  -4.092  -4.641  0.00  0.00    +0.020 C 
ATOM      7  C   LIG    1       -2.797  -3.615  -4.826  0.00  0.00    +0.030 C 
ATOM      8  C   LIG    1       -2.429  -2.653  -3.695  0.00  0.00    +0.040 C 
ENDBRANCH   1   3
BRANCH   1   9
ATOM      9  C   LIG    1       -2.233  -3.165   0.017  0.00  0.00    +0.160 C 
ATOM     10  C   LIG    1       -2.499  -2.173   1.151  0.00  0.00    +0.070 C 
ATOM     11  C   LIG    1       -0.885  -3.852   0.245  0.00  0.00    +0.080 C 
ENDBRANCH   1   9
BRANCH   1  12
ATOM     12  C   LIG    1       -0.858  -1.912  -1.498  0.00  0.00    +0.250 C 
BRANCH  12  13
ATOM     13  C   LIG    1       -0.541  -0.853  -0.440  0.00  0.00    +0.080 C 
BRANCH  13  15
ATOM     14  C   LIG    1        0.842   1.109  -0.890  0.00  0.00    +0.060 C 
ATOM     15  C   LIG    1        0.774  -0.194  -0.768  0.00  0.00    -0.060 C 
ENDBRANCH  13  15
ENDBRANCH  12  13
ENDBRANCH   1  12
TORSDOF 5
ENDMDL
MODEL      169
REMARK  Name = ZINC000606902258
REMARK                            x       y       z     vdW  Elec       q    Type
REMARK                         _______ _______ _______ _____ _____    ______ ____
ROOT
ATOM      1  N   LIG    1        4.143  -5.127   3.433  0.00  0.00    -0.390 N 
ATOM      2  C   LIG    1        4.134  -4.375   4.695  0.00  0.00    +0.320 C 
ATOM      3  H   LIG    1        3.340  -5.737   3.399  0.00  0.00    +0.420 HD
ENDROOT
BRANCH   1   4
ATOM      4  C   LIG    1        4.093  -4.188   2.304  0.00  0.00    +0.250 C 
BRANCH   4   5
ATOM      5  C   LIG    1        2.757  -3.441   2.321  0.00  0.00    +0.030 C 
BRANCH   5   6
ATOM      6  C   LIG    1        2.705  -2.464   1.145  0.00  0.00    +0.020 C 
BRANCH   6   7
ATOM      7  C   LIG    1        1.370  -1.717   1.161  0.00  0.00    +0.020 C 
BRANCH   7   8
ATOM      8  C   LIG    1        1.317  -0.740  -0.015  0.00  0.00    +0.050 C 
BRANCH   8  10
ATOM      9  C   LIG    1       -0.016   1.306   0.009  0.00  0.00    +0.020 C 
ATOM     10  C   LIG    1        0.002  -0.004   0.002  0.00  0.00    -0.060 C 
ENDBRANCH   8  10
ENDBRANCH   7   8
ENDBRANCH   6   7
ENDBRANCH   5   6
ENDBRANCH   4   5
ENDBRANCH   1   4
BRANCH   1  11
ATOM     11  C   LIG    1        5.371  -5.928   3.349  0.00  0.00    +0.250 C 
BRANCH  11  12
ATOM     12  C   LIG    1        5.364  -6.989   4.452  0.00  0.00    +0.040 C 
BRANCH  12  13
ATOM     13  C   LIG    1        6.643  -7.824   4.364  0.00  0.00    +0.070 C 
BRANCH  13  14
ATOM     14  C   LIG    1        6.637  -8.868   5.450  0.00  0.00    -0.070 C 
ATOM     15  C   LIG    1        6.785 -10.133   5.144  0.00  0.00    +0.030 C 
ENDBRANCH  13  14
ENDBRANCH  12  13
ENDBRANCH  11  12
ENDBRANCH   1  11
TORSDOF 10
ENDMDL
MODEL      170
REMARK  Name = ZINC000606902613
REMARK                            x       y       z     vdW  Elec       q    Type
REMARK                         _______ _______ _______ _____ _____    ______ ____
ROOT
ATOM      1  N   LIG    1       -3.999  -5.199  -3.486  0.00  0.00    -0.390 N 
ATOM      2  C   LIG    1       -4.010  -4.434  -4.739  0.00  0.00    +0.300 C 
ATOM      3  H   LIG    1       -3.180  -5.788  -3.458  0.00  0.00    +0.420 HD
ENDROOT
BRANCH   1   4
ATOM      4  C   LIG    1       -3.974  -4.272  -2.346  0.00  0.00    +0.250 C 
BRANCH   4   5
ATOM      5  C   LIG    1       -2.659  -3.489  -2.355  0.00  0.00    +0.030 C 
BRANCH   5   6
ATOM      6  C   LIG    1       -2.633  -2.524  -1.168  0.00  0.00    +0.020 C 
BRANCH   6   7
ATOM      7  C   LIG    1       -1.319  -1.741  -1.176  0.00  0.00    +0.020 C 
BRANCH   7   8
ATOM      8  C   LIG    1       -1.293  -0.775   0.010  0.00  0.00    +0.050 C 
BRANCH   8  10
ATOM      9  C   LIG    1       -0.016   1.306   0.009  0.00  0.00    +0.020 C 
ATOM     10  C   LIG    1        0.002  -0.004   0.002  0.00  0.00    -0.060 C 
ENDBRANCH   8  10
ENDBRANCH   7   8
ENDBRANCH   6   7
ENDBRANCH   5   6
ENDBRANCH   4   5
ENDBRANCH   1   4
BRANCH   1  11
ATOM     11  C   LIG    1       -5.205  -6.034  -3.411  0.00  0.00    +0.250 C 
BRANCH  11  12
ATOM     12  C   LIG    1       -5.169  -7.082  -4.525  0.00  0.00    +0.030 C 
BRANCH  12  13
ATOM     13  C   LIG    1       -6.425  -7.952  -4.447  0.00  0.00    -0.010 C 
ATOM     14  C   LIG    1       -6.413  -8.750  -3.141  0.00  0.00    +0.020 C 
ATOM     15  C   LIG    1       -6.452  -8.918  -5.634  0.00  0.00    +0.040 C 
ENDBRANCH  12  13
ENDBRANCH  11  12
ENDBRANCH   1  11
TORSDOF 9
ENDMDL
MODEL      171
REMARK  Name = ZINC000606902690
REMARK                            x       y       z     vdW  Elec       q    Type
REMARK                         _______ _______ _______ _____ _____    ______ ____
ROOT
ATOM      1  N   LIG    1        4.285  -5.044   3.434  0.00  0.00    -0.380 N 
ATOM      2  C   LIG    1        4.462  -4.248   4.656  0.00  0.00    +0.310 C 
ATOM      3  H   LIG    1        3.418  -5.559   3.491  0.00  0.00    +0.420 HD
ENDROOT
BRANCH   1   4
ATOM      4  C   LIG    1        4.249  -4.151   2.269  0.00  0.00    +0.250 C 
BRANCH   4   5
ATOM      5  C   LIG    1        3.012  -3.255   2.351  0.00  0.00    +0.030 C 
BRANCH   5   6
ATOM      6  C   LIG    1        2.974  -2.325   1.137  0.00  0.00    +0.020 C 
BRANCH   6   7
ATOM      7  C   LIG    1        1.737  -1.428   1.219  0.00  0.00    +0.020 C 
BRANCH   7   8
ATOM      8  C   LIG    1        1.699  -0.498   0.005  0.00  0.00    +0.050 C 
BRANCH   8  10
ATOM      9  C   LIG    1        0.611   1.687   0.032  0.00  0.00    +0.020 C 
ATOM     10  C   LIG    1        0.481   0.385   0.086  0.00  0.00    -0.060 C 
ENDBRANCH   8  10
ENDBRANCH   7   8
ENDBRANCH   6   7
ENDBRANCH   5   6
ENDBRANCH   4   5
ENDBRANCH   1   4
BRANCH   1  11
ATOM     11  C   LIG    1        5.405  -5.985   3.296  0.00  0.00    +0.290 C 
BRANCH  11  12
ATOM     12  C   LIG    1        5.369  -6.979   4.428  0.00  0.00    -0.130 C 
ATOM     13  C   LIG    1        6.408  -7.115   5.214  0.00  0.00    -0.040 C 
ATOM     14  C   LIG    1        6.442  -8.225   6.233  0.00  0.00    +0.110 C 
ATOM     15  C   LIG    1        7.569  -6.162   5.099  0.00  0.00    +0.100 C 
ENDBRANCH  11  12
ENDBRANCH   1  11
TORSDOF 8
ENDMDL
MODEL      172
REMARK  Name = ZINC000606902286
REMARK                            x       y       z     vdW  Elec       q    Type
REMARK                         _______ _______ _______ _____ _____    ______ ____
ROOT
ATOM      1  N   LIG    1        4.143  -5.127   3.433  0.00  0.00    -0.390 N 
ATOM      2  C   LIG    1        4.134  -4.375   4.695  0.00  0.00    +0.300 C 
ATOM      3  H   LIG    1        3.340  -5.737   3.399  0.00  0.00    +0.420 HD
ENDROOT
BRANCH   1   4
ATOM      4  C   LIG    1        4.093  -4.188   2.304  0.00  0.00    +0.250 C 
BRANCH   4   5
ATOM      5  C   LIG    1        2.757  -3.441   2.321  0.00  0.00    +0.030 C 
BRANCH   5   6
ATOM      6  C   LIG    1        2.705  -2.464   1.145  0.00  0.00    +0.020 C 
BRANCH   6   7
ATOM      7  C   LIG    1        1.370  -1.717   1.161  0.00  0.00    +0.020 C 
BRANCH   7   8
ATOM      8  C   LIG    1        1.317  -0.740  -0.015  0.00  0.00    +0.050 C 
BRANCH   8  10
ATOM      9  C   LIG    1       -0.016   1.306   0.009  0.00  0.00    +0.020 C 
ATOM     10  C   LIG    1        0.002  -0.004   0.002  0.00  0.00    -0.060 C 
ENDBRANCH   8  10
ENDBRANCH   7   8
ENDBRANCH   6   7
ENDBRANCH   5   6
ENDBRANCH   4   5
ENDBRANCH   1   4
BRANCH   1  11
ATOM     11  C   LIG    1        5.371  -5.928   3.349  0.00  0.00    +0.250 C 
BRANCH  11  12
ATOM     12  C   LIG    1        5.364  -6.989   4.452  0.00  0.00    +0.030 C 
BRANCH  12  13
ATOM     13  C   LIG    1        6.643  -7.824   4.364  0.00  0.00    +0.020 C 
BRANCH  13  14
ATOM     14  C   LIG    1        6.636  -8.884   5.467  0.00  0.00    +0.010 C 
ATOM     15  C   LIG    1        7.916  -9.719   5.380  0.00  0.00    +0.020 C 
ENDBRANCH  13  14
ENDBRANCH  12  13
ENDBRANCH  11  12
ENDBRANCH   1  11
TORSDOF 10
ENDMDL
MODEL      173
REMARK  Name = ZINC000606901051
REMARK                            x       y       z     vdW  Elec       q    Type
REMARK                         _______ _______ _______ _____ _____    ______ ____
ROOT
ATOM      1  N   LIG    1       -2.713  -3.385  -2.289  0.00  0.00    -0.380 N 
ATOM      2  C   LIG    1       -2.821  -2.605  -3.541  0.00  0.00    +0.250 C 
ATOM      3  C   LIG    1       -3.177  -3.450  -4.734  0.00  0.00    +0.050 C 
ATOM      4  C   LIG    1       -4.709  -3.405  -4.919  0.00  0.00    +0.020 C 
ATOM      5  C   LIG    1       -5.402  -4.281  -3.983  0.00  0.00    +0.030 C 
ATOM      6  C   LIG    1       -5.141  -3.885  -2.513  0.00  0.00    +0.050 C 
ATOM      7  C   LIG    1       -3.782  -4.394  -2.124  0.00  0.00    +0.160 C 
ATOM      8  H   LIG    1       -1.821  -3.857  -2.280  0.00  0.00    +0.420 HD
ENDROOT
BRANCH   7   9
ATOM      9  C   LIG    1       -3.820  -4.827  -0.657  0.00  0.00    +0.040 C 
ATOM     10  C   LIG    1       -2.469  -5.430  -0.268  0.00  0.00    +0.020 C 
ENDBRANCH   7   9
BRANCH   1  11
ATOM     11  C   LIG    1       -2.764  -2.457  -1.152  0.00  0.00    +0.240 C 
BRANCH  11  12
ATOM     12  C   LIG    1       -1.614  -1.454  -1.261  0.00  0.00    +0.040 C 
BRANCH  12  13
ATOM     13  C   LIG    1       -1.667  -0.487  -0.076  0.00  0.00    +0.070 C 
BRANCH  13  15
ATOM     14  C   LIG    1       -0.784   1.787  -0.169  0.00  0.00    +0.030 C 
ATOM     15  C   LIG    1       -0.535   0.501  -0.183  0.00  0.00    -0.070 C 
ENDBRANCH  13  15
ENDBRANCH  12  13
ENDBRANCH  11  12
ENDBRANCH   1  11
TORSDOF 5
ENDMDL
MODEL      174
REMARK  Name = ZINC000606901050
REMARK                            x       y       z     vdW  Elec       q    Type
REMARK                         _______ _______ _______ _____ _____    ______ ____
ROOT
ATOM      1  N   LIG    1       -2.740  -3.360  -2.322  0.00  0.00    -0.380 N 
ATOM      2  C   LIG    1       -2.905  -2.593  -3.575  0.00  0.00    +0.250 C 
ATOM      3  C   LIG    1       -3.320  -3.460  -4.777  0.00  0.00    +0.060 C 
ATOM      4  C   LIG    1       -2.577  -4.767  -4.860  0.00  0.00    +0.020 C 
ATOM      5  C   LIG    1       -3.385  -5.851  -4.103  0.00  0.00    +0.030 C 
ATOM      6  C   LIG    1       -3.250  -5.691  -2.660  0.00  0.00    +0.050 C 
ATOM      7  C   LIG    1       -3.784  -4.341  -2.151  0.00  0.00    +0.160 C 
ATOM      8  H   LIG    1       -1.847  -3.830  -2.340  0.00  0.00    +0.420 HD
ENDROOT
BRANCH   7   9
ATOM      9  C   LIG    1       -4.150  -4.455  -0.669  0.00  0.00    +0.030 C 
ATOM     10  C   LIG    1       -5.297  -5.453  -0.503  0.00  0.00    +0.060 C 
ENDBRANCH   7   9
BRANCH   1  11
ATOM     11  C   LIG    1       -2.767  -2.430  -1.185  0.00  0.00    +0.250 C 
BRANCH  11  12
ATOM     12  C   LIG    1       -1.609  -1.438  -1.310  0.00  0.00    +0.030 C 
BRANCH  12  13
ATOM     13  C   LIG    1       -1.637  -0.469  -0.126  0.00  0.00    +0.070 C 
BRANCH  13  15
ATOM     14  C   LIG    1       -0.734   1.797  -0.234  0.00  0.00    +0.030 C 
ATOM     15  C   LIG    1       -0.497   0.508  -0.250  0.00  0.00    -0.070 C 
ENDBRANCH  13  15
ENDBRANCH  12  13
ENDBRANCH  11  12
ENDBRANCH   1  11
TORSDOF 5
ENDMDL
