MODEL        1
REMARK  Name = ZINC001174789474
REMARK                            x       y       z     vdW  Elec       q    Type
REMARK                         _______ _______ _______ _____ _____    ______ ____
ROOT
ATOM      1  C   LIG    1       -1.294  -2.005   0.322  0.00  0.00    +0.180 A 
ATOM      2  C   LIG    1       -0.131  -2.731   0.527  0.00  0.00    -0.050 A 
ATOM      3  C   LIG    1       -0.197  -4.098   0.736  0.00  0.00    -0.050 A 
ATOM      4  C   LIG    1       -1.420  -4.743   0.742  0.00  0.00    -0.030 A 
ATOM      5  C   LIG    1       -2.585  -4.026   0.537  0.00  0.00    +0.010 A 
ATOM      6 CL   LIG    1        1.261  -5.005   0.993  0.00  0.00    -0.110 Cl
ATOM      7  C   LIG    1       -2.529  -2.656   0.332  0.00  0.00    +0.080 A 
ATOM      8  S   LIG    1       -4.012  -1.740   0.072  0.00  0.00    -0.940 S 
ENDROOT
BRANCH   1   9
ATOM      9  N   LIG    1       -1.231  -0.623   0.111  0.00  0.00    -0.680 N 
ATOM     10  H   LIG    1       -2.033  -0.131  -0.126  0.00  0.00    +0.420 HD
BRANCH   9  12
ATOM     11  C   LIG    1        0.473   0.722  -0.782  0.00  0.00    -0.050 C 
ATOM     12  C   LIG    1       -0.019   0.044   0.239  0.00  0.00    +0.130 C 
ATOM     13  C   LIG    1        0.733  -0.005   1.544  0.00  0.00    +0.080 C 
ENDBRANCH   9  12
ENDBRANCH   1   9
TORSDOF 2
ENDMDL
MODEL        2
REMARK  Name = ZINC001174793777
REMARK                            x       y       z     vdW  Elec       q    Type
REMARK                         _______ _______ _______ _____ _____    ______ ____
ROOT
ATOM      1  C   LIG    1       -1.294  -2.006   0.322  0.00  0.00    +0.180 A 
ATOM      2  C   LIG    1       -0.131  -2.732   0.527  0.00  0.00    -0.050 A 
ATOM      3  C   LIG    1       -0.196  -4.098   0.736  0.00  0.00    -0.010 A 
ATOM      4  C   LIG    1       -1.419  -4.744   0.741  0.00  0.00    -0.060 A 
ATOM      5  C   LIG    1       -2.585  -4.027   0.537  0.00  0.00    +0.010 A 
ATOM      6 CL   LIG    1       -1.491  -6.458   1.004  0.00  0.00    -0.110 Cl
ATOM      7  C   LIG    1       -2.529  -2.656   0.332  0.00  0.00    +0.090 A 
ATOM      8  S   LIG    1       -4.012  -1.741   0.073  0.00  0.00    -0.930 S 
ENDROOT
BRANCH   1   9
ATOM      9  N   LIG    1       -1.231  -0.623   0.111  0.00  0.00    -0.680 N 
ATOM     10  H   LIG    1       -2.033  -0.131  -0.126  0.00  0.00    +0.420 HD
BRANCH   9  12
ATOM     11  C   LIG    1        0.472   0.722  -0.782  0.00  0.00    -0.050 C 
ATOM     12  C   LIG    1       -0.019   0.044   0.239  0.00  0.00    +0.130 C 
ATOM     13  C   LIG    1        0.734  -0.005   1.543  0.00  0.00    +0.080 C 
ENDBRANCH   9  12
ENDBRANCH   1   9
TORSDOF 2
ENDMDL
MODEL        3
REMARK  Name = ZINC001174795694
REMARK                            x       y       z     vdW  Elec       q    Type
REMARK                         _______ _______ _______ _____ _____    ______ ____
ROOT
ATOM      1  C   LIG    1        2.412  -0.112   0.126  0.00  0.00    +0.160 A 
ATOM      2  C   LIG    1        2.498   1.270  -0.047  0.00  0.00    +0.100 A 
ATOM      3  C   LIG    1        3.732   1.899   0.031  0.00  0.00    -0.010 A 
ATOM      4  C   LIG    1        4.872   1.159   0.279  0.00  0.00    -0.010 A 
ATOM      5  C   LIG    1        4.788  -0.211   0.451  0.00  0.00    -0.030 A 
ATOM      6  S   LIG    1        1.043   2.212  -0.363  0.00  0.00    -0.900 S 
ATOM      7  C   LIG    1        3.562  -0.847   0.381  0.00  0.00    -0.060 A 
ATOM      8 CL   LIG    1        3.462  -2.567   0.598  0.00  0.00    -0.100 Cl
ENDROOT
BRANCH   1   9
ATOM      9  N   LIG    1        1.170  -0.754   0.049  0.00  0.00    -0.690 N 
ATOM     10  H   LIG    1        1.102  -1.631  -0.361  0.00  0.00    +0.390 HD
BRANCH   9  12
ATOM     11  C   LIG    1       -1.063  -0.067  -0.171  0.00  0.00    -0.100 C 
ATOM     12  C   LIG    1        0.036  -0.136   0.559  0.00  0.00    +0.200 C 
ATOM     13  C   LIG    1        0.059   0.457   1.944  0.00  0.00    +0.070 C 
ENDBRANCH   9  12
ENDBRANCH   1   9
TORSDOF 2
ENDMDL
